data/VERIFIED cases/activsg2000_mod_cleaned.m
% Case saved by PowerWorld Simulator, version 23, build date October 31, 2023
% Case Information Header = 6 lines
% This is a synthetic power system model that does NOT represent the actual grid. It was developed as part of the US ARPA-E Grid
% Data research project and contains no CEII.
% Reference: A.B. Birchfield, T. Xu, K.M. Gegner, K.S. Shetye, and T.J. Overbye, "Grid Structural Characteristics as Validation
% Criteria for Synthetic Networks," IEEE Transactions on Power Systems, vol. 32, no. 4, pp. 3258-3265, July 2017.
%
% Case Version: Feb. 3, 2018
function mpc = activsg2000_mod
mpc.version = '2';
mpc.baseMVA = 100.00;

%% bus data
mpc.bus = [
1001 1 20.78 5.89 0.00 0.00 1 0.9832693 -22.717310 115.00 9 1.100 0.900 25.75 -3.48 0 0
1002 1 15.41 4.37 0.00 0.00 1 1.0228984 -18.202241 115.00 9 1.100 0.900 84.21 0.49 0 0
1003 1 0.00 0.00 0.00 0.00 1 1.0128665 -17.086514 115.00 9 1.100 0.900 -6.74 0.14 0 0
1004 2 0.00 0.00 0.00 0.00 1 1.0173233 -18.924752 230.00 9 1.100 0.900 -7.08 6.03 0 0
1005 1 0.00 0.00 0.00 0.00 1 1.0100657 -16.170260 115.00 9 1.100 0.900 -52.96 -29.63 0 0
1006 2 0.00 0.00 0.00 0.00 1 1.0036552 -14.014231 13.80 9 1.100 0.900 -50.44 0.00 0 0
1007 1 7.01 1.99 0.00 0.21 1 1.0300000 -18.572526 115.00 9 1.100 0.900 73.76 0.00 0 0
1008 1 0.00 0.00 0.00 0.00 1 1.0242060 -8.821196 115.00 9 1.100 0.900 -680.69 29.86 0 0
1009 2 0.00 0.00 0.00 0.00 1 1.0142268 -5.557580 13.80 9 1.100 0.900 -680.32 29.76 0 0
1010 1 0.00 0.00 0.00 -2.17 1 1.0300000 -16.929494 115.00 9 1.100 0.900 86.13 0.00 0 0
1011 2 0.00 0.00 0.00 0.00 1 1.0302185 -15.181429 22.00 9 1.100 0.900 86.02 0.00 0 0
1012 1 2.99 0.85 0.00 9.50 1 1.0168076 -25.376972 115.00 9 1.100 0.900 -344.59 36.10 0 0
1013 1 29.23 8.28 0.00 0.00 1 1.0088941 -15.509344 115.00 9 1.100 0.900 49.34 -0.98 0 0
1014 1 2.22 0.63 0.00 0.00 1 1.0154629 -12.028460 115.00 9 1.100 0.900 71.89 -7.32 0 0
1015 1 7.51 2.13 0.00 0.00 1 1.0319474 -18.325652 115.00 9 1.100 0.900 81.09 -0.15 0 0
1016 1 2.89 0.82 0.00 30.00 1 1.0189050 -15.567399 115.00 9 1.100 0.900 -1.91 -27.33 0 0
1017 1 18.34 5.20 0.00 0.00 1 0.9855026 -21.438765 115.00 9 1.100 0.900 26.56 -2.71 0 0
1018 1 0.07 0.02 0.00 0.00 1 0.9934972 -20.213253 115.00 9 1.100 0.900 29.91 -2.15 0 0
1019 1 61.78 17.50 0.00 142.98 1 1.0034333 -22.307560 115.00 9 1.100 0.900 21.25 -3.60 0 0
1020 1 0.00 0.00 0.00 76.73 1 1.0257667 -15.324003 115.00 9 1.100 0.900 -53.97 0.00 0 0
1021 2 0.00 0.00 0.00 0.00 1 1.0014715 -8.737577 13.80 9 1.100 0.900 -52.36 0.00 0 0
1022 1 0.00 0.00 0.00 0.00 1 1.0156196 -16.204589 115.00 9 1.100 0.900 -6.07 0.19 0 0
1023 2 0.00 0.00 0.00 0.00 1 1.0100000 -7.320177 13.80 9 1.100 0.900 -5.92 0.00 0 0
1024 1 63.04 17.86 0.00 0.00 1 0.9956613 -19.198018 115.00 9 1.100 0.900 32.46 -0.99 0 0
1025 1 0.00 0.00 0.00 0.00 1 1.0210347 -14.268141 115.00 9 1.100 0.900 -52.26 -11.84 0 0
1026 2 0.00 0.00 0.00 0.00 1 1.0000000 -4.777556 13.80 9 1.100 0.900 -49.53 0.00 0 0
1027 1 101.21 28.68 0.00 75.00 1 1.0137174 -25.822724 115.00 9 1.100 0.900 -5.64 -2.49 0 0
1028 1 10.01 2.84 0.00 0.00 1 1.0189401 -17.709091 115.00 9 1.100 0.900 -4.89 0.50 0 0
1029 1 83.18 23.57 0.00 40.00 1 1.0100509 -24.875555 115.00 9 1.100 0.900 -0.15 -0.61 0 0
1030 1 24.63 6.98 0.00 0.00 1 1.0182145 -13.563051 115.00 9 1.100 0.900 99.16 -10.05 0 0
1031 1 9.25 2.62 0.00 0.00 1 1.0188383 -17.756878 115.00 9 1.100 0.900 61.74 -0.03 0 0
1032 1 0.00 0.00 0.00 0.00 1 1.0064580 -12.464414 115.00 9 1.100 0.900 132.88 -43.51 0 0
1033 2 0.00 0.00 0.00 50.00 1 1.0258956 -17.019892 230.00 9 1.100 0.900 51.53 -22.14 0 0
1034 1 0.00 0.00 0.00 0.00 1 1.0064622 -14.398834 115.00 9 1.100 0.900 -27.54 -36.49 0 0
1035 2 0.00 0.00 0.00 0.00 1 1.0000000 -11.109550 13.80 9 1.100 0.900 -23.36 0.00 0 0
1036 1 13.60 3.85 0.00 0.00 1 1.0005404 -12.669135 115.00 9 1.100 0.900 107.44 -21.86 0 0
1037 1 102.24 28.97 0.00 0.00 1 0.9782644 -22.538638 115.00 9 1.100 0.900 27.08 -3.00 0 0
1038 1 0.00 0.00 0.00 0.00 1 1.0200165 -7.827773 115.00 9 1.100 0.900 110.79 -14.86 0 0
1039 2 0.00 0.00 0.00 0.00 1 1.0000000 -2.457912 22.00 9 1.100 0.900 112.08 0.00 0 0
1040 1 44.36 12.57 0.00 0.00 1 0.9955934 -20.470961 115.00 9 1.100 0.900 29.68 -1.71 0 0
1041 1 0.00 0.00 0.00 0.00 1 1.0049004 -15.191759 115.00 9 1.100 0.900 -1038.75 23.76 0 0
1042 2 0.00 0.00 0.00 0.00 1 1.0049004 -15.191759 13.80 9 1.100 0.900 -1038.75 23.76 0 0
1043 2 0.00 0.00 0.00 0.00 1 1.0000000 -11.954361 13.80 9 1.100 0.900 -1037.88 0.00 0 0
1044 1 14.68 4.16 0.00 0.00 1 1.0150956 -25.950298 115.00 9 1.100 0.900 -141.55 -40.27 0 0
1045 1 98.56 27.93 0.00 0.00 1 0.9821782 -24.424670 115.00 9 1.100 0.900 18.05 -3.50 0 0
1046 1 11.08 3.14 0.00 12.00 1 1.0281038 -22.567086 115.00 9 1.100 0.900 -423.42 31.55 0 0
1047 1 0.00 0.00 0.00 0.00 1 1.0078412 -13.429307 115.00 9 1.100 0.900 47.24 -1.28 0 0
1048 2 0.00 0.00 0.00 0.00 1 1.0078412 -13.429307 18.00 9 1.100 0.900 47.24 -1.28 0 0
1049 2 0.00 0.00 0.00 0.00 1 1.0078412 -13.429307 18.00 9 1.100 0.900 47.24 -1.28 0 0
1050 2 0.00 0.00 0.00 0.00 1 1.0000000 -8.372439 18.00 9 1.100 0.900 47.17 0.00 0 0
1051 2 0.00 0.00 0.00 0.00 1 1.0000000 -6.897056 18.00 9 1.100 0.900 47.05 0.00 0 0
1052 2 0.00 0.00 0.00 0.00 1 1.0002096 -9.219315 18.00 9 1.100 0.900 47.13 0.00 0 0
1053 2 0.00 0.00 0.00 0.00 1 1.0255300 -17.409181 230.00 9 1.100 0.900 46.38 -0.32 0 0
1054 1 14.99 4.25 0.00 0.00 1 1.0124978 -22.355151 115.00 9 1.100 0.900 -18.58 0.24 0 0
1055 1 3.98 1.13 0.00 0.00 1 1.0055728 -18.133462 115.00 9 1.100 0.900 -8.07 -0.03 0 0
1056 1 0.00 0.00 0.00 72.84 1 1.0300000 -21.905816 115.00 9 1.100 0.900 -20.84 0.00 0 0
1057 2 0.00 0.00 0.00 0.00 1 1.0300000 -21.905816 18.00 9 1.100 0.900 -20.84 0.00 0 0
1058 1 13.46 3.81 0.00 0.00 1 1.0257384 -11.430439 115.00 9 1.100 0.900 -585.80 13.30 0 0
1059 2 0.00 0.00 0.00 0.00 1 1.0257384 -11.430439 22.00 9 1.100 0.900 -585.80 13.30 0 0
1060 2 0.00 0.00 0.00 0.00 1 1.0257384 -11.430439 22.00 9 1.100 0.900 -585.80 13.30 0 0
1061 1 0.00 0.00 0.00 0.00 1 1.0118555 -17.310499 115.00 9 1.100 0.900 -60.92 -23.13 0 0
1062 2 0.00 0.00 0.00 0.00 1 1.0118555 -17.310499 13.80 9 1.100 0.900 -60.92 -23.13 0 0
1063 2 0.00 0.00 0.00 0.00 1 1.0118555 -17.310499 13.80 9 1.100 0.900 -60.92 -23.13 0 0
1064 1 123.76 35.07 0.00 0.00 1 0.9761932 -24.127069 115.00 9 1.100 0.900 23.25 -3.54 0 0
1065 1 0.00 0.00 0.00 0.00 1 1.0078293 -15.026185 115.00 9 1.100 0.900 -2026.49 113.31 0 0
1066 2 0.00 0.00 0.00 0.00 1 1.0000000 -7.511022 13.80 9 1.100 0.900 -2023.95 0.00 0 0
1067 1 101.55 28.77 0.00 0.00 1 1.0017997 -15.761050 115.00 9 1.100 0.900 -45.37 -60.77 0 0
1068 1 59.40 16.83 0.00 0.00 1 0.9876051 -16.525760 115.00 9 1.100 0.900 37.47 -15.81 0 0
1069 1 0.00 0.00 0.00 0.00 1 1.0271943 -8.947464 115.00 9 1.100 0.900 -619.52 14.71 0 0
1070 2 0.00 0.00 0.00 0.00 1 1.0400000 -4.453015 13.80 9 1.100 0.900 -617.12 0.00 0 0
1071 1 91.46 25.91 0.00 0.00 1 0.9905955 -21.463594 115.00 9 1.100 0.900 27.69 -3.35 0 0
1072 2 0.00 0.00 0.00 0.00 1 1.0100000 -12.120635 18.00 9 1.100 0.900 28.03 0.00 0 0
1073 2 0.00 0.00 0.00 0.00 1 1.0100000 -5.722171 18.00 9 1.100 0.900 28.34 0.00 0 0
1074 2 0.00 0.00 0.00 0.00 1 1.0100000 -7.768028 18.00 9 1.100 0.900 28.20 0.00 0 0
1075 2 0.00 0.00 0.00 0.00 1 1.0100000 -10.527143 18.00 9 1.100 0.900 28.16 0.00 0 0
1076 2 0.00 0.00 0.00 0.00 1 0.9905955 -21.463594 18.00 9 1.100 0.900 27.69 -3.35 0 0
1077 2 0.00 0.00 0.00 0.00 1 0.9905955 -21.463594 18.00 9 1.100 0.900 27.69 -3.35 0 0
1078 2 0.00 0.00 0.00 0.00 1 1.0100000 -11.046350 18.00 9 1.100 0.900 28.19 0.00 0 0
1079 2 0.00 0.00 0.00 0.00 1 1.0196783 -38.413759 500.00 9 1.100 0.900 38.02 -10.23 0 0
1080 2 0.00 0.00 0.00 0.00 1 1.0100000 -10.465807 18.00 9 1.100 0.900 28.06 0.00 0 0
1081 2 0.00 0.00 0.00 81.45 1 1.0300000 -18.760187 230.00 9 1.100 0.900 46.26 0.00 0 0
1082 2 0.00 0.00 0.00 0.00 1 1.0232702 -6.119365 115.00 9 1.100 0.900 -589.26 7.34 0 0
1083 1 39.95 11.32 0.00 26.15 1 1.0225622 -10.048375 115.00 9 1.100 0.900 102.17 -13.71 0 0
1084 2 0.00 0.00 0.00 0.00 1 1.0280695 -16.541509 115.00 9 1.100 0.900 -42.65 -7.50 0 0
1085 1 21.30 6.03 0.00 0.00 1 1.0109939 -15.391737 115.00 9 1.100 0.900 44.10 -0.93 0 0
1086 1 39.67 11.24 0.00 30.00 1 1.0180350 -17.632515 115.00 9 1.100 0.900 47.00 -1.18 0 0
1087 1 0.91 0.26 0.00 14.08 1 1.0300000 -16.302128 115.00 9 1.100 0.900 -514.20 0.00 0 0
1088 2 0.00 0.00 0.00 0.00 1 1.0000000 -11.980894 115.00 9 1.100 0.900 82.05 0.00 0 0
1089 1 40.60 11.50 0.00 0.00 1 0.9866172 -21.317360 115.00 9 1.100 0.900 -12.44 -0.27 0 0
1090 2 0.00 0.00 0.00 0.00 1 1.0200000 -16.140040 115.00 9 1.100 0.900 34.44 0.00 0 0
1091 1 11.62 3.29 0.00 0.00 1 1.0325369 -30.889151 161.00 9 1.100 0.900 -23.26 -0.76 0 0
2001 1 48.36 13.70 0.00 0.00 2 1.0028266 -59.684573 161.00 11 1.100 0.900 141.96 14.24 0 0
2002 1 0.00 0.00 0.00 0.00 2 1.0127459 -61.271208 500.00 11 1.100 0.900 148.20 16.97 0 0
2003 1 0.00 0.00 0.00 0.00 2 1.0114382 -63.525490 161.00 11 1.100 0.900 155.92 19.83 0 0
2004 2 0.00 0.00 0.00 0.00 2 1.0127459 -61.271208 13.80 11 1.100 0.900 148.20 16.97 0 0
2005 2 0.00 0.00 0.00 0.00 2 1.0127459 -61.271208 13.80 11 1.100 0.900 148.20 16.97 0 0
2006 2 0.00 0.00 0.00 0.00 2 1.0127459 -61.271208 13.80 11 1.100 0.900 148.20 16.97 0 0
2007 1 9.54 2.70 0.00 0.00 2 1.0036962 -59.455296 161.00 11 1.100 0.900 144.56 16.59 0 0
2008 1 8.06 2.28 0.00 0.00 2 1.0194802 -32.619675 161.00 10 1.100 0.900 6.86 -1.09 0 0
2009 1 39.14 11.09 0.00 120.00 2 1.0240329 -45.010530 161.00 11 1.100 0.900 19.71 0.00 0 0
2010 1 56.81 16.09 0.00 30.23 2 1.0300000 -36.284310 161.00 10 1.100 0.900 -47.20 0.00 0 0
2011 1 0.00 0.00 0.00 0.00 2 1.0391456 -31.861782 500.00 10 1.100 0.900 24.36 -0.35 0 0
2012 1 0.00 0.00 0.00 0.00 2 1.0281084 -29.635778 161.00 10 1.100 0.900 21.80 -0.72 0 0
2013 2 0.00 0.00 0.00 0.00 2 1.0307882 -29.523084 18.00 10 1.100 0.900 24.37 -0.36 0 0
2014 1 25.43 7.20 0.00 0.00 2 1.0191622 -33.208972 161.00 10 1.100 0.900 -1.87 -0.83 0 0
2015 1 4.69 1.33 0.00 0.00 2 1.0119204 -63.031152 161.00 11 1.100 0.900 247.05 17.44 0 0
2016 1 69.27 19.63 0.00 0.00 2 1.0110313 -69.645184 161.00 11 1.100 0.900 2322.91 545.82 0 0
2017 1 0.00 0.00 0.00 -200.00 2 1.0308513 -32.025225 500.00 10 1.100 0.900 21.48 0.19 0 0
2018 1 0.00 0.00 0.00 0.00 2 1.0284512 -31.235740 161.00 10 1.100 0.900 21.67 -0.10 0 0
2019 2 0.00 0.00 0.00 0.00 2 1.0308513 -32.025225 20.00 10 1.100 0.900 21.48 0.19 0 0
2020 1 47.97 13.59 0.00 0.00 2 0.9971126 -44.658779 161.00 11 1.100 0.900 25.69 4.26 0 0
2021 1 0.00 0.00 0.00 0.00 2 1.0147819 -56.411584 500.00 11 1.100 0.900 135.35 9.95 0 0
2022 1 11.56 3.28 0.00 0.00 2 1.0110343 -58.342569 161.00 11 1.100 0.900 138.84 13.08 0 0
2023 2 0.00 0.00 0.00 0.00 2 1.0200000 -54.849321 13.80 11 1.100 0.900 134.81 0.00 0 0
2024 2 0.00 0.00 0.00 0.00 2 1.0200000 -54.184522 13.80 11 1.100 0.900 134.66 0.00 0 0
2025 1 39.62 11.23 0.00 0.00 2 0.9956997 -43.895889 161.00 11 1.100 0.900 17.84 1.53 0 0
2026 1 18.57 5.26 0.00 0.00 2 1.0269424 -30.842389 161.00 10 1.100 0.900 23.86 -0.47 0 0
2027 1 3.55 1.01 0.00 0.00 2 1.0033145 -60.114729 161.00 11 1.100 0.900 143.72 14.98 0 0
2028 1 14.24 4.03 0.00 0.00 2 0.9973559 -47.025470 161.00 11 1.100 0.900 44.13 10.69 0 0
2029 1 3.20 0.91 0.00 0.00 2 1.0257156 -32.601977 161.00 10 1.100 0.900 -8.69 -0.56 0 0
2030 1 47.15 13.36 0.00 0.00 2 0.9899937 -63.734054 161.00 11 1.100 0.900 163.80 24.62 0 0
2031 1 5.77 1.63 0.00 0.00 2 1.0273799 -29.556821 161.00 10 1.100 0.900 -81.89 7.24 0 0
2032 1 3.35 0.95 0.00 0.00 2 1.0056708 -58.851618 161.00 11 1.100 0.900 142.62 15.33 0 0
2033 1 13.57 3.85 0.00 0.00 2 0.9926470 -65.242617 161.00 11 1.100 0.900 172.61 26.28 0 0
2034 1 5.34 1.51 0.00 0.00 2 1.0087705 -68.968720 161.00 11 1.100 0.900 2456.82 590.25 0 0
2035 1 4.68 1.33 0.00 0.00 2 1.0224805 -30.490323 161.00 10 1.100 0.900 -98.51 10.26 0 0
2036 1 41.59 11.78 0.00 0.00 2 1.0010695 -44.259848 161.00 11 1.100 0.900 20.61 1.77 0 0
2037 1 3.50 0.99 0.00 0.00 2 1.0231699 -63.372392 161.00 11 1.100 0.900 275.41 12.43 0 0
2038 1 2.60 0.74 0.00 0.00 2 1.0083959 -63.996661 161.00 11 1.100 0.900 159.84 21.48 0 0
2039 1 5.56 1.58 0.00 0.00 2 0.9953527 -60.405824 161.00 11 1.100 0.900 168.95 23.30 0 0
2040 1 15.90 4.51 0.00 0.00 2 1.0085034 -59.011880 161.00 11 1.100 0.900 140.74 13.75 0 0
2041 1 0.00 0.00 0.00 0.00 2 1.0289661 -27.456110 161.00 10 1.100 0.900 21.89 -0.54 0 0
2042 2 0.00 0.00 0.00 0.00 2 1.0203826 -24.885620 18.00 10 1.100 0.900 21.90 -2.89 0 0
2043 1 4.24 1.20 0.00 0.00 2 1.0095564 -69.277262 161.00 11 1.100 0.900 2400.33 573.93 0 0
2044 1 27.40 7.76 0.00 0.00 2 1.0180231 -65.098514 161.00 11 1.100 0.900 261.03 18.83 0 0
2045 1 22.61 6.40 0.00 0.00 2 0.9965567 -45.197972 161.00 11 1.100 0.900 29.44 5.70 0 0
2046 1 22.13 6.27 0.00 0.00 2 1.0083213 -68.580437 161.00 11 1.100 0.900 2515.88 603.88 0 0
2047 1 14.96 4.24 0.00 0.00 2 1.0102276 -64.424462 161.00 11 1.100 0.900 1395.57 363.42 0 0
2048 1 6.42 1.82 0.00 0.00 2 1.0315776 -31.601878 161.00 10 1.100 0.900 -50.44 2.94 0 0
2049 1 11.57 3.28 0.00 0.00 2 1.0212072 -40.748670 161.00 10 1.100 0.900 -0.79 2.06 0 0
2050 1 3.66 1.04 0.00 0.00 2 0.9955929 -62.931061 161.00 11 1.100 0.900 156.16 20.53 0 0
2051 1 17.85 5.06 0.00 0.00 2 0.9932863 -53.905707 161.00 11 1.100 0.900 119.27 25.26 0 0
2052 1 24.84 7.04 0.00 0.00 2 1.0196757 -31.739697 161.00 10 1.100 0.900 14.13 -1.11 0 0
2053 1 29.13 8.25 0.00 0.00 2 0.9935712 -59.085410 161.00 11 1.100 0.900 109.28 18.74 0 0
2054 1 0.00 0.00 0.00 0.00 2 0.9992304 -42.906699 500.00 11 1.100 0.900 19.47 0.99 0 0
2055 1 49.62 14.06 0.00 0.00 2 0.9990372 -43.734194 161.00 11 1.100 0.900 20.75 1.98 0 0
2056 2 0.00 0.00 0.00 0.00 2 0.9992304 -42.906699 18.00 11 1.100 0.900 19.47 0.99 0 0
2057 2 0.00 0.00 0.00 0.00 2 0.9900000 -38.505498 18.00 11 1.100 0.900 19.33 0.00 0 0
2058 1 0.00 0.00 0.00 0.00 2 1.0292245 -27.027998 161.00 10 1.100 0.900 22.11 -0.53 0 0
2059 2 0.00 0.00 0.00 0.00 2 1.0192382 -23.687375 13.80 10 1.100 0.900 22.09 -0.53 0 0
2060 1 3.80 1.08 0.00 0.00 2 0.9987263 -61.649662 161.00 11 1.100 0.900 151.97 19.29 0 0
2061 1 0.00 0.00 0.00 0.00 2 1.0241765 -37.234106 161.00 10 1.100 0.900 -16.07 0.88 0 0
2062 2 0.00 0.00 0.00 0.00 2 1.0200000 -34.937474 18.00 10 1.100 0.900 -16.06 0.00 0 0
2063 1 65.62 18.59 0.00 40.00 2 1.0094208 -67.942689 161.00 11 1.100 0.900 2558.98 612.12 0 0
2064 1 10.05 2.85 0.00 0.00 2 1.0042718 -59.979527 161.00 11 1.100 0.900 145.05 16.18 0 0
2065 1 78.36 22.20 0.00 100.00 2 1.0265958 -65.330923 161.00 11 1.100 0.900 317.77 0.00 0 0
2066 1 7.11 2.02 0.00 0.00 2 1.0205176 -27.579194 161.00 10 1.100 0.900 -119.17 10.10 0 0
2067 1 53.97 15.29 0.00 0.00 2 0.9938681 -43.818291 161.00 11 1.100 0.900 13.71 1.09 0 0
2068 1 5.76 1.63 0.00 0.00 2 1.0000073 -41.786276 161.00 11 1.100 0.900 -3.08 -0.22 0 0
2069 1 21.92 6.21 0.00 120.00 2 1.0256535 -68.824542 161.00 11 1.100 0.900 211.30 0.00 0 0
2070 1 0.00 0.00 0.00 0.00 2 1.0020082 -41.367875 161.00 11 1.100 0.900 -9.28 -0.19 0 0
2071 2 0.00 0.00 0.00 0.00 2 1.0000000 -37.691672 18.00 11 1.100 0.900 -9.22 0.00 0 0
2072 1 9.71 2.75 0.00 0.00 2 1.0193048 -66.947576 161.00 11 1.100 0.900 196.27 48.16 0 0
2073 1 0.00 0.00 0.00 0.00 2 1.0206386 -25.073183 161.00 10 1.100 0.900 -134.89 8.38 0 0
2074 1 0.00 0.00 0.00 0.00 2 1.0103368 -23.221001 115.00 10 1.100 0.900 -187.96 4.73 0 0
2075 1 0.00 0.00 0.00 0.00 2 1.0103368 -23.221001 115.00 10 1.100 0.900 -187.96 4.73 0 0
2076 2 0.00 0.00 0.00 0.00 2 1.0258769 -24.175526 24.00 10 1.100 0.900 -134.95 8.36 0 0
2077 1 0.00 0.00 0.00 0.00 2 1.0234299 -60.957479 161.00 11 1.100 0.900 244.47 11.61 0 0
2078 2 0.00 0.00 0.00 0.00 2 1.0200000 -57.644049 13.80 11 1.100 0.900 242.70 0.00 0 0
2079 1 4.48 1.27 0.00 0.00 2 1.0314567 -34.510993 161.00 10 1.100 0.900 -48.53 1.36 0 0
2080 1 16.93 4.80 0.00 0.00 2 0.9988719 -57.256624 161.00 11 1.100 0.900 160.85 24.69 0 0
2081 1 4.46 1.26 0.00 0.00 2 1.0029353 -64.800358 161.00 11 1.100 0.900 166.99 24.34 0 0
2082 1 59.03 16.73 0.00 0.00 2 1.0054574 -44.607133 161.00 11 1.100 0.900 20.42 1.53 0 0
2083 2 0.00 0.00 0.00 0.00 2 1.0200000 -43.035162 20.00 11 1.100 0.900 20.31 1.48 0 0
2084 2 0.00 0.00 0.00 0.00 2 1.0054574 -44.607133 20.00 11 1.100 0.900 20.42 1.53 0 0
2085 2 0.00 0.00 0.00 0.00 2 1.0054574 -44.607133 20.00 11 1.100 0.900 20.42 1.53 0 0
2086 1 2.19 0.62 0.00 0.00 2 0.9966097 -59.217668 161.00 11 1.100 0.900 165.92 23.98 0 0
2087 1 7.90 2.24 0.00 0.00 2 1.0233904 -27.414567 161.00 10 1.100 0.900 -109.69 9.05 0 0
2088 1 0.00 0.00 0.00 0.00 2 1.0010148 -41.486220 161.00 11 1.100 0.900 -5.34 -0.24 0 0
2089 2 0.00 0.00 0.00 0.00 2 1.0000000 -37.885591 24.00 11 1.100 0.900 -5.28 0.00 0 0
2090 1 2.42 0.69 0.00 0.00 2 1.0037156 -60.733903 161.00 11 1.100 0.900 146.66 16.35 0 0
2091 1 17.05 4.83 0.00 0.00 2 1.0249880 -33.876801 161.00 10 1.100 0.900 -72.42 7.20 0 0
2092 1 24.11 6.83 0.00 0.00 2 1.0082488 -66.258231 161.00 11 1.100 0.900 2569.97 618.26 0 0
2093 1 0.00 0.00 0.00 0.00 2 1.0287266 -30.394147 161.00 10 1.100 0.900 21.74 -0.43 0 0
2094 2 0.00 0.00 0.00 0.00 2 1.0287266 -30.394147 13.80 10 1.100 0.900 21.74 -0.43 0 0
2095 2 0.00 0.00 0.00 0.00 2 1.0287266 -30.394147 13.80 10 1.100 0.900 21.74 -0.43 0 0
2096 1 0.00 0.00 0.00 -69.70 2 1.0296491 -27.723075 500.00 10 1.100 0.900 9.97 0.64 0 0
2097 1 0.00 0.00 0.00 0.00 2 1.0283464 -27.175970 230.00 10 1.100 0.900 7.26 0.58 0 0
2098 1 0.00 0.00 0.00 0.00 2 1.0335753 -30.302965 161.00 10 1.100 0.900 -18.41 -1.66 0 0
2099 2 0.00 0.00 0.00 0.00 2 1.0291813 -27.581845 18.00 10 1.100 0.900 9.96 0.00 0 0
2100 2 0.00 0.00 0.00 0.00 2 1.0204453 -25.115278 18.00 10 1.100 0.900 9.93 0.00 0 0
2101 1 0.00 0.00 0.00 0.00 2 1.0123850 -62.375997 500.00 11 1.100 0.900 150.87 18.31 0 0
2102 1 0.00 0.00 0.00 0.00 2 1.0131776 -63.819841 161.00 11 1.100 0.900 176.22 27.20 0 0
2103 2 0.00 0.00 0.00 0.00 2 1.0123850 -62.375997 20.00 11 1.100 0.900 150.87 18.31 0 0
2104 2 0.00 0.00 0.00 0.00 2 1.0123850 -62.375997 20.00 11 1.100 0.900 150.87 18.31 0 0
2105 2 0.00 0.00 0.00 0.00 2 1.0123850 -62.375997 20.00 11 1.100 0.900 150.87 18.31 0 0
2106 1 14.40 4.08 0.00 0.00 2 0.9910934 -65.887483 161.00 11 1.100 0.900 178.08 28.53 0 0
2107 1 74.15 21.01 0.00 0.00 2 1.0078170 -64.688468 161.00 11 1.100 0.900 192.49 27.88 0 0
2108 1 2.14 0.61 0.00 0.00 2 1.0034610 -43.488063 161.00 10 1.100 0.900 -182.58 88.36 0 0
2109 1 33.81 9.58 0.00 0.00 2 1.0101461 -46.141667 161.00 11 1.100 0.900 29.53 4.94 0 0
...
];

%% generator data
mpc.gen = [
1004 158.25 -30.38 44.94 -30.38 1.0100 253.20 1 158.25 158.25 0.00 0.00 0.00 0.00 0.00 0.00 0 0 0 0 211.0000 0 0 0 0
1006 25.73 -4.94 7.31 -4.94 1.0000 41.16 1 25.73 25.73 0.00 0.00 0.00 0.00 0.00 0.00 0 0 0 0 34.3000 0 0 0 0
1009 61.87 -11.88 17.57 -11.88 1.0000 99.00 1 61.87 61.87 0.00 0.00 0.00 0.00 0.00 0.00 0 0 0 0 82.5000 0 0 0 0
1011 9.97 0.00 0.00 0.00 1.0000 12.00 1 10.00 3.00 0.00 0.00 0.00 0.00 0.00 0.00 0 0 0 0 10.0000 0 0 0 0
1021 149.63 -28.73 42.49 -28.73 1.0000 239.40 1 149.63 149.63 0.00 0.00 0.00 0.00 0.00 0.00 0 0 0 0 199.5000 0 0 0 0
1023 135.00 -0.50 38.34 -25.92 1.0100 216.00 1 135.00 135.00 0.00 0.00 0.00 0.00 0.00 0.00 0 0 0 0 180.0000 0 0 0 0
1026 93.15 -6.08 26.45 -17.88 1.0000 149.04 1 93.15 93.15 0.00 0.00 0.00 0.00 0.00 0.00 0 0 0 0 124.2000 0 0 0 0
1033 208.50 -40.03 59.21 -40.03 1.0000 333.60 1 208.50 208.50 0.00 0.00 0.00 0.00 0.00 0.00 0 0 0 0 278.0000 0 0 0 0
1035 67.50 -9.13 19.17 -12.96 1.0000 108.00 1 67.50 67.50 0.00 0.00 0.00 0.00 0.00 0.00 0 0 0 0 90.0000 0 0 0 0
1039 110.63 -20.68 31.42 -21.24 1.0000 177.00 1 110.63 110.63 0.00 0.00 0.00 0.00 0.00 0.00 0 0 0 0 147.5000 0 0 0 0
1042 0.00 0.00 25.96 -17.55 1.0000 146.28 0 121.90 36.57 0.00 0.00 0.00 0.00 0.00 0.00 0 0 0 0 121.9000 0 0 0 0
1043 44.10 -3.60 12.52 -8.47 1.0000 70.56 1 44.10 44.10 0.00 0.00 0.00 0.00 0.00 0.00 0 0 0 0 58.8000 0 0 0 0
1048 0.00 0.00 165.53 -36.10 1.0000 390.24 0 325.20 97.56 0.00 0.00 0.00 0.00 0.00 0.00 0 0 0 0 325.2000 0 0 0 0
1049 0.00 0.00 165.53 -36.10 1.0000 390.24 0 325.20 97.56 0.00 0.00 0.00 0.00 0.00 0.00 0 0 0 0 325.2000 0 0 0 0
1050 89.15 -6.75 45.50 -9.92 1.0000 107.28 1 89.40 26.82 0.00 0.00 0.00 0.00 0.00 0.00 0 0 0 0 89.4000 0 0 0 0
1051 89.15 -4.90 45.50 -9.92 1.0000 107.28 1 89.40 26.82 0.00 0.00 0.00 0.00 0.00 0.00 0 0 0 0 89.4000 0 0 0 0
1052 89.15 -9.92 45.50 -9.92 1.0000 107.28 1 89.40 26.82 0.00 0.00 0.00 0.00 0.00 0.00 0 0 0 0 89.4000 0 0 0 0
1053 0.00 0.00 91.01 -19.85 1.0000 214.56 0 178.80 53.64 0.00 0.00 0.00 0.00 0.00 0.00 0 0 0 0 178.8000 0 0 0 0
1057 0.00 0.00 25.56 -17.28 1.0000 144.00 0 120.00 36.00 0.00 0.00 0.00 0.00 0.00 0.00 0 0 0 0 120.0000 0 0 0 0
1059 0.00 0.00 2.85 -0.62 1.0400 6.72 0 5.60 1.68 0.00 0.00 0.00 0.00 0.00 0.00 0 0 0 0 5.6000 0 0 0 0
1060 0.00 0.00 1.02 -0.22 1.0400 2.40 0 2.00 0.60 0.00 0.00 0.00 0.00 0.00 0.00 0 0 0 0 2.0000 0 0 0 0
1062 0.00 0.00 0.00 0.00 1.0100 1.80 0 1.50 0.45 0.00 0.00 0.00 0.00 0.00 0.00 0 0 0 0 1.5000 0 0 0 0
1063 0.00 0.00 0.00 0.00 1.0100 276.00 0 230.00 69.00 0.00 0.00 0.00 0.00 0.00 0.00 0 0 0 0 230.0000 0 0 0 0
1066 106.88 -3.74 30.35 -20.52 1.0000 171.00 1 106.88 106.88 0.00 0.00 0.00 0.00 0.00 0.00 0 0 0 0 142.5000 0 0 0 0
1070 120.38 18.61 34.19 -23.11 1.0400 192.60 1 120.38 120.38 0.00 0.00 0.00 0.00 0.00 0.00 0 0 0 0 160.5000 0 0 0 0
1072 191.59 26.59 97.80 -21.33 1.0100 230.56 1 192.13 57.64 0.00 0.00 0.00 0.00 0.00 0.00 0 0 0 0 192.1300 0 0 0 0
1073 191.59 33.37 97.80 -21.33 1.0100 230.56 1 192.13 57.64 0.00 0.00 0.00 0.00 0.00 0.00 0 0 0 0 192.1300 0 0 0 0
1074 191.59 29.73 97.80 -21.33 1.0100 230.56 1 192.13 57.64 0.00 0.00 0.00 0.00 0.00 0.00 0 0 0 0 192.1300 0 0 0 0
1075 191.59 30.72 97.80 -21.33 1.0100 230.56 1 192.13 57.64 0.00 0.00 0.00 0.00 0.00 0.00 0 0 0 0 192.1300 0 0 0 0
1076 0.00 0.00 97.80 -21.33 1.0100 230.56 0 192.13 57.64 0.00 0.00 0.00 0.00 0.00 0.00 0 0 0 0 192.1300 0 0 0 0
1077 0.00 0.00 97.80 -21.33 1.0100 230.56 0 192.13 57.64 0.00 0.00 0.00 0.00 0.00 0.00 0 0 0 0 192.1300 0 0 0 0
1078 95.23 16.25 48.61 -10.60 1.0100 114.60 1 95.50 28.65 0.00 0.00 0.00 0.00 0.00 0.00 0 0 0 0 95.5000 0 0 0 0
1079 95.23 -10.60 48.61 -10.60 1.0100 114.60 1 95.50 28.65 0.00 0.00 0.00 0.00 0.00 0.00 0 0 0 0 95.5000 0 0 0 0
1080 95.23 13.11 48.61 -10.60 1.0100 114.60 1 95.50 28.65 0.00 0.00 0.00 0.00 0.00 0.00 0 0 0 0 95.5000 0 0 0 0
1081 0.00 0.00 145.83 -31.80 1.0100 343.80 0 286.50 85.95 0.00 0.00 0.00 0.00 0.00 0.00 0 0 0 0 286.5000 0 0 0 0
1082 112.50 -21.60 31.95 -21.60 1.0000 180.00 1 112.50 112.50 0.00 0.00 0.00 0.00 0.00 0.00 0 0 0 0 150.0000 0 0 0 0
1084 86.62 24.60 24.60 -16.63 1.0400 138.60 1 86.62 86.62 0.00 0.00 0.00 0.00 0.00 0.00 0 0 0 0 115.5000 0 0 0 0
1088 56.25 -3.24 15.97 -10.80 1.0000 90.00 1 56.25 56.25 0.00 0.00 0.00 0.00 0.00 0.00 0 0 0 0 75.0000 0 0 0 0
1090 114.37 26.48 32.48 -21.96 1.0200 183.00 1 114.37 114.37 0.00 0.00 0.00 0.00 0.00 0.00 0 0 0 0 152.5000 0 0 0 0
1090 27.00 7.67 7.67 -5.18 1.0200 43.20 1 27.00 27.00 0.00 0.00 0.00 0.00 0.00 0.00 0 0 0 0 36.0000 0 0 0 0
2004 0.00 0.00 199.43 -43.49 1.0200 470.16 0 391.80 117.54 0.00 0.00 0.00 0.00 0.00 0.00 0 0 0 0 391.8000 0 0 0 0
2005 0.00 0.00 199.43 -43.49 1.0200 470.16 0 391.80 117.54 0.00 0.00 0.00 0.00 0.00 0.00 0 0 0 0 391.8000 0 0 0 0
2006 0.00 0.00 199.43 -43.49 1.0200 470.16 0 391.80 117.54 0.00 0.00 0.00 0.00 0.00 0.00 0 0 0 0 391.8000 0 0 0 0
2013 150.45 -28.89 42.73 -28.89 1.0000 240.72 1 150.45 150.45 0.00 0.00 0.00 0.00 0.00 0.00 0 0 0 0 200.6000 0 0 0 0
2019 0.00 0.00 46.43 -31.39 1.0400 261.60 0 218.00 65.40 0.00 0.00 0.00 0.00 0.00 0.00 0 0 0 0 218.0000 0 0 0 0
2023 83.10 15.44 42.42 -9.25 1.0200 100.00 1 83.33 25.00 0.00 0.00 0.00 0.00 0.00 0.00 0 0 0 0 83.3300 0 0 0 0
2024 166.20 22.70 84.83 -18.50 1.0200 200.00 1 166.67 50.00 0.00 0.00 0.00 0.00 0.00 0.00 0 0 0 0 166.6700 0 0 0 0
2042 59.70 -11.46 16.95 -11.46 1.0100 95.52 1 59.70 59.70 0.00 0.00 0.00 0.00 0.00 0.00 0 0 0 0 79.6000 0 0 0 0
2056 0.00 0.00 2.80 -0.73 0.9900 7.20 0 6.00 1.80 0.00 0.00 0.00 0.00 0.00 0.00 0 0 0 0 6.0000 0 0 0 0
2057 573.57 -57.95 335.52 -87.84 0.9900 864.00 1 720.00 216.00 0.00 0.00 0.00 0.00 0.00 0.00 0 0 0 0 720.0000 0 0 0 0
2059 60.00 -11.52 17.04 -11.52 1.0000 96.00 1 60.00 60.00 0.00 0.00 0.00 0.00 0.00 0.00 0 0 0 0 80.0000 0 0 0 0
2062 101.55 -12.30 28.84 -19.50 1.0200 162.48 1 101.55 101.55 0.00 0.00 0.00 0.00 0.00 0.00 0 0 0 0 135.4000 0 0 0 0
2071 112.50 -2.45 31.95 -21.60 1.0000 180.00 1 112.50 112.50 0.00 0.00 0.00 0.00 0.00 0.00 0 0 0 0 150.0000 0 0 0 0
2076 22.50 6.39 6.39 -4.32 1.0400 36.00 1 22.50 22.50 0.00 0.00 0.00 0.00 0.00 0.00 0 0 0 0 30.0000 0 0 0 0
2078 84.38 -4.82 23.96 -16.20 1.0200 135.00 1 84.38 84.38 0.00 0.00 0.00 0.00 0.00 0.00 0 0 0 0 112.5000 0 0 0 0
2083 19.94 10.08 10.18 -2.22 1.0200 24.00 1 20.00 6.00 0.00 0.00 0.00 0.00 0.00 0.00 0 0 0 0 20.0000 0 0 0 0
2084 0.00 0.00 10.18 -2.22 1.0200 24.00 0 20.00 6.00 0.00 0.00 0.00 0.00 0.00 0.00 0 0 0 0 20.0000 0 0 0 0
2085 0.00 0.00 20.36 -4.44 1.0200 48.00 0 40.00 12.00 0.00 0.00 0.00 0.00 0.00 0.00 0 0 0 0 40.0000 0 0 0 0
2089 50.70 -0.28 14.40 -9.73 1.0000 81.12 1 50.70 50.70 0.00 0.00 0.00 0.00 0.00 0.00 0 0 0 0 67.6000 0 0 0 0
2094 0.00 0.00 2.13 -1.44 1.0000 12.00 0 10.00 3.00 0.00 0.00 0.00 0.00 0.00 0.00 0 0 0 0 10.0000 0 0 0 0
2095 0.00 0.00 16.93 -11.45 1.0000 95.40 0 79.50 23.85 0.00 0.00 0.00 0.00 0.00 0.00 0 0 0 0 79.5000 0 0 0 0
2099 7.50 -1.44 2.13 -1.44 1.0200 12.00 1 7.50 7.50 0.00 0.00 0.00 0.00 0.00 0.00 0 0 0 0 10.0000 0 0 0 0
2100 112.50 -21.60 31.95 -21.60 1.0200 180.00 1 112.50 112.50 0.00 0.00 0.00 0.00 0.00 0.00 0 0 0 0 150.0000 0 0 0 0
2103 0.00 0.00 136.28 -29.72 1.0000 321.28 0 267.73 80.32 0.00 0.00 0.00 0.00 0.00 0.00 0 0 0 0 267.7300 0 0 0 0
2104 0.00 0.00 136.28 -29.72 1.0000 321.28 0 267.73 80.32 0.00 0.00 0.00 0.00 0.00 0.00 0 0 0 0 267.7300 0 0 0 0
2105 0.00 0.00 136.28 -29.72 1.0000 321.28 0 267.73 80.32 0.00 0.00 0.00 0.00 0.00 0.00 0 0 0 0 267.7300 0 0 0 0
2115 184.20 -20.50 94.02 -20.50 1.0000 221.66 1 184.72 55.41 0.00 0.00 0.00 0.00 0.00 0.00 0 0 0 0 184.7200 0 0 0 0
2116 184.20 -20.50 94.02 -20.50 1.0000 221.66 1 184.72 55.41 0.00 0.00 0.00 0.00 0.00 0.00 0 0 0 0 184.7200 0 0 0 0
2117 184.20 -20.50 94.02 -20.50 1.0000 221.66 1 184.72 55.41 0.00 0.00 0.00 0.00 0.00 0.00 0 0 0 0 184.7200 0 0 0 0
2118 184.20 -20.50 94.02 -20.50 1.0000 221.66 1 184.72 55.41 0.00 0.00 0.00 0.00 0.00 0.00 0 0 0 0 184.7200 0 0 0 0
2119 184.20 -20.50 94.02 -20.50 1.0000 221.66 1 184.72 55.41 0.00 0.00 0.00 0.00 0.00 0.00 0 0 0 0 184.7200 0 0 0 0
2120 184.20 -4.83 94.02 -20.50 1.0100 221.66 1 184.72 55.41 0.00 0.00 0.00 0.00 0.00 0.00 0 0 0 0 184.7200 0 0 0 0
2123 136.28 -26.16 38.70 -26.16 1.0000 218.04 1 136.28 136.28 0.00 0.00 0.00 0.00 0.00 0.00 0 0 0 0 181.7000 0 0 0 0
2127 216.45 0.00 61.47 -41.56 1.0400 346.32 1 216.45 216.45 0.00 0.00 0.00 0.00 0.00 0.00 0 0 0 0 288.6000 0 0 0 0
3004 28.13 -5.40 7.99 -5.40 1.0000 45.00 1 28.13 28.13 0.00 0.00 0.00 0.00 0.00 0.00 0 0 0 0 37.5000 0 0 0 0
3017 127.13 -0.17 36.10 -24.41 1.0100 203.40 1 127.13 127.13 0.00 0.00 0.00 0.00 0.00 0.00 0 0 0 0 169.5000 0 0 0 0
3020 112.50 1.34 31.95 -21.60 1.0300 180.00 1 112.50 112.50 0.00 0.00 0.00 0.00 0.00 0.00 0 0 0 0 150.0000 0 0 0 0
3028 150.00 37.00 42.60 -28.80 1.0400 240.00 1 150.00 150.00 0.00 0.00 0.00 0.00 0.00 0.00 0 0 0 0 200.0000 0 0 0 0
3034 97.87 17.15 27.80 -18.79 1.0300 156.60 1 97.87 97.87 0.00 0.00 0.00 0.00 0.00 0.00 0 0 0 0 130.5000 0 0 0 0
3039 156.75 43.45 44.52 -30.10 1.0400 250.80 1 156.75 156.75 0.00 0.00 0.00 0.00 0.00 0.00 0 0 0 0 209.0000 0 0 0 0
3043 0.00 0.00 0.66 -0.14 1.0400 1.56 0 1.30 0.39 0.00 0.00 0.00 0.00 0.00 0.00 0 0 0 0 1.3000 0 0 0 0
3044 0.00 0.00 45.50 -9.92 1.0400 107.28 0 89.40 26.82 0.00 0.00 0.00 0.00 0.00 0.00 0 0 0 0 89.4000 0 0 0 0
3045 0.00 0.00 227.52 -49.62 1.0400 536.40 0 447.00 134.10 0.00 0.00 0.00 0.00 0.00 0.00 0 0 0 0 447.0000 0 0 0 0
3048 180.75 51.33 51.33 -34.70 1.0400 289.20 1 180.75 180.75 0.00 0.00 0.00 0.00 0.00 0.00 0 0 0 0 241.0000 0 0 0 0
3055 183.88 35.84 52.22 -35.30 1.0400 294.20 1 183.88 183.88 0.00 0.00 0.00 0.00 0.00 0.00 0 0 0 0 245.1700 0 0 0 0
3056 183.88 24.17 52.22 -35.30 1.0400 294.20 1 183.88 183.88 0.00 0.00 0.00 0.00 0.00 0.00 0 0 0 0 245.1700 0 0 0 0
3057 183.88 22.55 52.22 -35.30 1.0400 294.20 1 183.88 183.88 0.00 0.00 0.00 0.00 0.00 0.00 0 0 0 0 245.1700 0 0 0 0
3060 124.22 13.20 35.28 -23.85 1.0400 198.75 1 124.22 124.22 0.00 0.00 0.00 0.00 0.00 0.00 0 0 0 0 165.6300 0 0 0 0
3061 124.22 13.96 35.28 -23.85 1.0400 198.75 1 124.22 124.22 0.00 0.00 0.00 0.00 0.00 0.00 0 0 0 0 165.6300 0 0 0 0
3062 124.22 19.50 35.28 -23.85 1.0400 198.75 1 124.22 124.22 0.00 0.00 0.00 0.00 0.00 0.00 0 0 0 0 165.6300 0 0 0 0
3063 124.22 14.90 35.28 -23.85 1.0400 198.75 1 124.22 124.22 0.00 0.00 0.00 0.00 0.00 0.00 0 0 0 0 165.6300 0 0 0 0
3065 60.37 -11.59 17.15 -11.59 1.0000 96.60 1 60.37 60.37 0.00 0.00 0.00 0.00 0.00 0.00 0 0 0 0 80.5000 0 0 0 0
3068 112.50 25.60 31.95 -21.60 1.0400 180.00 1 112.50 112.50 0.00 0.00 0.00 0.00 0.00 0.00 0 0 0 0 150.0000 0 0 0 0
3071 127.65 -24.51 36.25 -24.51 1.0000 204.24 1 127.65 127.65 0.00 0.00 0.00 0.00 0.00 0.00 0 0 0 0 170.2000 0 0 0 0
3074 74.85 -7.14 21.26 -14.37 1.0000 119.76 1 74.85 74.85 0.00 0.00 0.00 0.00 0.00 0.00 0 0 0 0 99.8000 0 0 0 0
3081 186.75 34.05 53.04 -35.86 1.0400 298.80 1 186.75 186.75 0.00 0.00 0.00 0.00 0.00 0.00 0 0 0 0 249.0000 0 0 0 0
3084 174.37 -8.91 49.52 -33.48 1.0000 279.00 1 174.37 174.37 0.00 0.00 0.00 0.00 0.00 0.00 0 0 0 0 232.5000 0 0 0 0
3086 56.25 -1.69 15.97 -10.80 1.0000 90.00 1 56.25 56.25 0.00 0.00 0.00 0.00 0.00 0.00 0 0 0 0 75.0000 0 0 0 0
3087 0.00 0.00 15.97 -10.80 1.0000 90.00 0 75.00 22.50 0.00 0.00 0.00 0.00 0.00 0.00 0 0 0 0 75.0000 0 0 0 0
3092 150.00 18.47 42.60 -28.80 1.0400 240.00 1 150.00 150.00 0.00 0.00 0.00 0.00 0.00 0.00 0 0 0 0 200.0000 0 0 0 0
3095 90.45 19.63 25.69 -17.37 1.0400 144.72 1 90.45 90.45 0.00 0.00 0.00 0.00 0.00 0.00 0 0 0 0 120.6000 0 0 0 0
3098 120.00 18.01 34.08 -23.04 1.0400 192.00 1 120.00 120.00 0.00 0.00 0.00 0.00 0.00 0.00 0 0 0 0 160.0000 0 0 0 0
3105 44.50 -0.74 17.07 -0.74 1.0000 18.00 1 44.50 44.50 0.00 0.00 0.00 0.00 0.00 0.00 0 0 0 0 15.0000 0 0 0 0
3106 53.02 -2.69 62.48 -2.69 1.0000 65.88 1 53.02 53.02 0.00 0.00 0.00 0.00 0.00 0.00 0 0 0 0 54.9000 0 0 0 0
3110 63.00 11.96 17.89 -12.10 1.0400 100.80 1 63.00 63.00 0.00 0.00 0.00 0.00 0.00 0.00 0 0 0 0 84.0000 0 0 0 0
3112 56.10 -3.02 15.93 -10.77 1.0000 89.76 1 56.10 56.10 0.00 0.00 0.00 0.00 0.00 0.00 0 0 0 0 74.8000 0 0 0 0
3113 56.10 -2.33 15.93 -10.77 1.0000 89.76 1 56.10 56.10 0.00 0.00 0.00 0.00 0.00 0.00 0 0 0 0 74.8000 0 0 0 0
3117 47.25 -5.08 13.42 -9.07 1.0000 75.60 1 47.25 47.25 0.00 0.00 0.00 0.00 0.00 0.00 0 0 0 0 63.0000 0 0 0 0
3118 90.00 -8.52 25.56 -17.28 1.0000 144.00 1 90.00 90.00 0.00 0.00 0.00 0.00 0.00 0.00 0 0 0 0 120.0000 0 0 0 0
3120 29.70 0.00 0.00 0.00 1.0000 47.52 1 29.70 29.70 0.00 0.00 0.00 0.00 0.00 0.00 0 0 0 0 39.6000 0 0 0 0
3122 147.75 -13.30 41.96 -28.37 1.0000 236.40 1 147.75 147.75 0.00 0.00 0.00 0.00 0.00 0.00 0 0 0 0 197.0000 0 0 0 0
3127 101.25 -19.44 28.76 -19.44 1.0000 162.00 1 101.25 101.25 0.00 0.00 0.00 0.00 0.00 0.00 0 0 0 0 135.0000 0 0 0 0
3129 94.88 -18.22 26.94 -18.22 1.0000 151.80 1 94.88 94.88 0.00 0.00 0.00 0.00 0.00 0.00 0 0 0 0 126.5000 0 0 0 0
3131 85.50 22.87 24.28 -16.42 1.0200 136.80 1 85.50 85.50 0.00 0.00 0.00 0.00 0.00 0.00 0 0 0 0 114.0000 0 0 0 0
3133 0.00 0.00 26.11 -5.69 1.0400 61.56 0 51.30 15.39 0.00 0.00 0.00 0.00 0.00 0.00 0 0 0 0 51.3000 0 0 0 0
3133 0.00 0.00 26.11 -5.69 1.0400 61.56 0 51.30 15.39 0.00 0.00 0.00 0.00 0.00 0.00 0 0 0 0 51.3000 0 0 0 0
3133 0.00 0.00 26.11 -5.69 1.0400 61.56 0 51.30 15.39 0.00 0.00 0.00 0.00 0.00 0.00 0 0 0 0 51.3000 0 0 0 0
3137 75.90 21.56 21.56 -14.57 1.0300 121.44 1 75.90 75.90 0.00 0.00 0.00 0.00 0.00 0.00 0 0 0 0 101.2000 0 0 0 0
3141 68.62 -13.18 19.49 -13.18 1.0000 109.80 1 68.62 68.62 0.00 0.00 0.00 0.00 0.00 0.00 0 0 0 0 91.5000 0 0 0 0
4010 151.20 11.42 42.94 -29.03 1.0300 241.92 1 151.20 151.20 0.00 0.00 0.00 0.00 0.00 0.00 0 0 0 0 201.6000 0 0 0 0
4026 408.86 44.50 191.06 -50.02 1.0300 492.00 1 410.00 123.00 0.00 0.00 0.00 0.00 0.00 0.00 0 0 0 0 410.0000 0 0 0 0
4030 460.56 -34.54 290.04 -75.93 1.0100 746.88 1 622.40 186.72 0.00 0.00 0.00 0.00 0.00 0.00 0 0 0 0 622.4000 0 0 0 0
4045 93.40 7.47 35.86 -1.54 1.0200 37.80 1 93.40 93.40 0.00 0.00 0.00 0.00 0.00 0.00 0 0 0 0 31.5000 0 0 0 0
4046 28.50 1.96 10.94 -0.47 1.0200 11.52 1 28.50 28.50 0.00 0.00 0.00 0.00 0.00 0.00 0 0 0 0 9.6000 0 0 0 0
4047 27.48 3.41 75.10 -3.23 1.0200 79.20 1 27.48 27.48 0.00 0.00 0.00 0.00 0.00 0.00 0 0 0 0 66.0000 0 0 0 0
4050 150.00 -21.93 42.60 -28.80 1.0000 240.00 1 150.00 150.00 0.00 0.00 0.00 0.00 0.00 0.00 0 0 0 0 200.0000 0 0 0 0
4052 44.08 22.50 22.50 -4.91 1.0400 53.04 1 44.20 13.26 0.00 0.00 0.00 0.00 0.00 0.00 0 0 0 0 44.2000 0 0 0 0
4058 99.60 17.46 73.30 -15.98 1.0300 172.80 1 144.00 43.20 0.00 0.00 0.00 0.00 0.00 0.00 0 0 0 0 144.0000 0 0 0 0
4059 84.08 18.43 73.30 -15.98 1.0300 172.80 1 144.00 43.20 0.00 0.00 0.00 0.00 0.00 0.00 0 0 0 0 144.0000 0 0 0 0
4060 124.40 14.84 73.30 -15.98 1.0300 172.80 1 144.00 43.20 0.00 0.00 0.00 0.00 0.00 0.00 0 0 0 0 144.0000 0 0 0 0
4061 148.87 19.50 87.72 -19.13 1.0300 206.80 1 172.33 51.70 0.00 0.00 0.00 0.00 0.00 0.00 0 0 0 0 172.3300 0 0 0 0
4062 171.85 17.02 87.72 -19.13 1.0300 206.80 1 172.33 51.70 0.00 0.00 0.00 0.00 0.00 0.00 0 0 0 0 172.3300 0 0 0 0
4063 124.75 19.69 87.72 -19.13 1.0300 206.80 1 172.33 51.70 0.00 0.00 0.00 0.00 0.00 0.00 0 0 0 0 172.3300 0 0 0 0
4065 46.87 13.41 23.92 -5.22 1.0200 56.40 1 47.00 14.10 0.00 0.00 0.00 0.00 0.00 0.00 0 0 0 0 47.0000 0 0 0 0
4075 0.00 0.00 89.75 -19.57 1.0300 211.60 0 176.33 52.90 0.00 0.00 0.00 0.00 0.00 0.00 0 0 0 0 176.3300 0 0 0 0
4076 175.84 23.56 89.75 -19.57 1.0300 211.60 1 176.33 52.90 0.00 0.00 0.00 0.00 0.00 0.00 0 0 0 0 176.3300 0 0 0 0
4077 97.06 17.97 89.75 -19.57 1.0300 211.60 1 176.33 52.90 0.00 0.00 0.00 0.00 0.00 0.00 0 0 0 0 176.3300 0 0 0 0
4082 242.72 29.65 123.89 -27.02 1.0400 292.08 1 243.40 73.02 0.00 0.00 0.00 0.00 0.00 0.00 0 0 0 0 243.4000 0 0 0 0
4083 242.72 30.42 123.89 -27.02 1.0400 292.08 1 243.40 73.02 0.00 0.00 0.00 0.00 0.00 0.00 0 0 0 0 243.4000 0 0 0 0
4084 242.72 46.21 123.89 -27.02 1.0400 292.08 1 243.40 73.02 0.00 0.00 0.00 0.00 0.00 0.00 0 0 0 0 243.4000 0 0 0 0
4085 168.05 48.81 179.17 -39.07 1.0400 422.40 1 352.00 105.60 0.00 0.00 0.00 0.00 0.00 0.00 0 0 0 0 352.0000 0 0 0 0
4090 0.00 0.00 0.65 -0.17 1.0100 1.68 0 1.40 0.42 0.00 0.00 0.00 0.00 0.00 0.00 0 0 0 0 1.4000 0 0 0 0
4091 23.43 2.45 10.95 -2.87 1.0100 28.20 1 23.50 7.05 0.00 0.00 0.00 0.00 0.00 0.00 0 0 0 0 23.5000 0 0 0 0
4092 0.00 0.00 3.54 -0.93 1.0100 9.12 0 7.60 2.28 0.00 0.00 0.00 0.00 0.00 0.00 0 0 0 0 7.6000 0 0 0 0
4093 27.92 1.30 13.05 -3.42 1.0100 33.60 1 28.00 8.40 0.00 0.00 0.00 0.00 0.00 0.00 0 0 0 0 28.0000 0 0 0 0
4094 27.92 4.86 13.05 -3.42 1.0100 33.60 1 28.00 8.40 0.00 0.00 0.00 0.00 0.00 0.00 0 0 0 0 28.0000 0 0 0 0
4095 27.92 2.14 13.05 -3.42 1.0100 33.60 1 28.00 8.40 0.00 0.00 0.00 0.00 0.00 0.00 0 0 0 0 28.0000 0 0 0 0
4096 0.00 0.00 13.05 -3.42 1.0100 33.60 0 28.00 8.40 0.00 0.00 0.00 0.00 0.00 0.00 0 0 0 0 28.0000 0 0 0 0
4097 27.92 1.87 13.05 -3.42 1.0100 33.60 1 28.00 8.40 0.00 0.00 0.00 0.00 0.00 0.00 0 0 0 0 28.0000 0 0 0 0
4098 0.00 0.00 13.05 -3.42 1.0100 33.60 0 28.00 8.40 0.00 0.00 0.00 0.00 0.00 0.00 0 0 0 0 28.0000 0 0 0 0
4105 135.00 23.77 38.34 -25.92 1.0100 216.00 1 135.00 135.00 0.00 0.00 0.00 0.00 0.00 0.00 0 0 0 0 180.0000 0 0 0 0
4115 131.43 28.40 67.09 -14.63 1.0400 158.16 1 131.80 39.54 0.00 0.00 0.00 0.00 0.00 0.00 0 0 0 0 131.8000 0 0 0 0
4116 123.76 25.71 67.09 -14.63 1.0400 158.16 1 131.80 39.54 0.00 0.00 0.00 0.00 0.00 0.00 0 0 0 0 131.8000 0 0 0 0
4133 0.00 0.00 17.10 -3.73 1.0000 40.32 0 33.60 10.08 0.00 0.00 0.00 0.00 0.00 0.00 0 0 0 0 33.6000 0 0 0 0
4134 10.21 -3.73 17.10 -3.73 1.0000 40.32 1 33.60 10.08 0.00 0.00 0.00 0.00 0.00 0.00 0 0 0 0 33.6000 0 0 0 0
4135 10.21 -3.73 17.10 -3.73 1.0000 40.32 1 33.60 10.08 0.00 0.00 0.00 0.00 0.00 0.00 0 0 0 0 33.6000 0 0 0 0
4136 10.21 -3.73 17.10 -3.73 1.0000 40.32 1 33.60 10.08 0.00 0.00 0.00 0.00 0.00 0.00 0 0 0 0 33.6000 0 0 0 0
4137 0.00 0.00 34.20 -7.46 1.0000 80.64 0 67.20 20.16 0.00 0.00 0.00 0.00 0.00 0.00 0 0 0 0 67.2000 0 0 0 0
4138 0.00 0.00 33.59 -7.33 1.0000 79.20 0 66.00 19.80 0.00 0.00 0.00 0.00 0.00 0.00 0 0 0 0 66.0000 0 0 0 0
4142 141.00 27.34 40.04 -27.07 1.0400 225.60 1 141.00 141.00 0.00 0.00 0.00 0.00 0.00 0.00 0 0 0 0 188.0000 0 0 0 0
4153 212.40 60.32 60.32 -40.78 1.0400 339.84 1 212.40 212.40 0.00 0.00 0.00 0.00 0.00 0.00 0 0 0 0 283.2000 0 0 0 0
4160 197.22 64.87 100.66 -21.95 1.0300 237.32 1 197.77 59.33 0.00 0.00 0.00 0.00 0.00 0.00 0 0 0 0 197.7700 0 0 0 0
4161 87.79 27.19 100.66 -21.95 1.0300 237.32 1 197.77 59.33 0.00 0.00 0.00 0.00 0.00 0.00 0 0 0 0 197.7700 0 0 0 0
4162 112.46 26.14 100.66 -21.95 1.0300 237.32 1 197.77 59.33 0.00 0.00 0.00 0.00 0.00 0.00 0 0 0 0 197.7700 0 0 0 0
4163 0.00 0.00 4.58 -1.00 1.0300 10.80 0 9.00 2.70 0.00 0.00 0.00 0.00 0.00 0.00 0 0 0 0 9.0000 0 0 0 0
4166 150.75 -28.94 42.81 -28.94 1.0000 241.20 1 150.75 150.75 0.00 0.00 0.00 0.00 0.00 0.00 0 0 0 0 201.0000 0 0 0 0
4177 112.50 -0.14 31.95 -21.60 1.0400 180.00 1 112.50 112.50 0.00 0.00 0.00 0.00 0.00 0.00 0 0 0 0 150.0000 0 0 0 0
4181 150.07 42.62 42.62 -28.81 1.0400 240.12 1 150.07 150.07 0.00 0.00 0.00 0.00 0.00 0.00 0 0 0 0 200.1000 0 0 0 0
4183 152.25 43.24 43.24 -29.23 1.0300 243.60 1 152.25 152.25 0.00 0.00 0.00 0.00 0.00 0.00 0 0 0 0 203.0000 0 0 0 0
4192 74.79 17.91 38.17 -8.33 1.0200 90.00 1 75.00 22.50 0.00 0.00 0.00 0.00 0.00 0.00 0 0 0 0 75.0000 0 0 0 0
4192 183.26 17.91 93.54 -20.40 1.0200 220.52 1 183.77 55.13 0.00 0.00 0.00 0.00 0.00 0.00 0 0 0 0 183.7700 0 0 0 0
4192 0.00 0.00 12.22 -2.66 1.0200 28.80 0 24.00 7.20 0.00 0.00 0.00 0.00 0.00 0.00 0 0 0 0 24.0000 0 0 0 0
4192 60.83 17.91 31.05 -6.77 1.0200 73.20 1 61.00 18.30 0.00 0.00 0.00 0.00 0.00 0.00 0 0 0 0 61.0000 0 0 0 0
4192 10.37 5.29 5.29 -1.15 1.0200 12.48 1 10.40 3.12 0.00 0.00 0.00 0.00 0.00 0.00 0 0 0 0 10.4000 0 0 0 0
4192 136.48 17.91 135.90 -29.64 1.0200 320.40 1 267.00 80.10 0.00 0.00 0.00 0.00 0.00 0.00 0 0 0 0 267.0000 0 0 0 0
4192 155.90 17.91 135.90 -29.64 1.0200 320.40 1 267.00 80.10 0.00 0.00 0.00 0.00 0.00 0.00 0 0 0 0 267.0000 0 0 0 0
4192 155.90 17.91 135.90 -29.64 1.0200 320.40 1 267.00 80.10 0.00 0.00 0.00 0.00 0.00 0.00 0 0 0 0 267.0000 0 0 0 0
4192 183.26 17.91 93.54 -20.40 1.0200 220.52 1 183.77 55.13 0.00 0.00 0.00 0.00 0.00 0.00 0 0 0 0 183.7700 0 0 0 0
4192 183.26 17.91 93.54 -20.40 1.0200 220.52 1 183.77 55.13 0.00 0.00 0.00 0.00 0.00 0.00 0 0 0 0 183.7700 0 0 0 0
4194 151.20 42.94 42.94 -29.03 1.0200 241.92 1 151.20 151.20 0.00 0.00 0.00 0.00 0.00 0.00 0 0 0 0 201.6000 0 0 0 0
4195 69.00 -13.25 19.60 -13.25 1.0000 110.40 1 69.00 69.00 0.00 0.00 0.00 0.00 0.00 0.00 0 0 0 0 92.0000 0 0 0 0
5020 90.00 -16.74 25.56 -17.28 1.0000 144.00 1 90.00 90.00 0.00 0.00 0.00 0.00 0.00 0.00 0 0 0 0 120.0000 0 0 0 0
5023 0.00 0.00 2.44 -0.53 1.0400 5.76 0 4.80 1.44 0.00 0.00 0.00 0.00 0.00 0.00 0 0 0 0 4.8000 0 0 0 0
5035 0.00 0.00 2.14 -0.47 1.0200 5.04 0 4.20 1.26 0.00 0.00 0.00 0.00 0.00 0.00 0 0 0 0 4.2000 0 0 0 0
5036 0.00 0.00 3.26 -0.71 1.0200 7.68 0 6.40 1.92 0.00 0.00 0.00 0.00 0.00 0.00 0 0 0 0 6.4000 0 0 0 0
5037 93.74 67.42 157.01 -34.24 1.0200 370.16 1 308.47 92.54 0.00 0.00 0.00 0.00 0.00 0.00 0 0 0 0 308.4700 0 0 0 0
5038 93.74 65.51 157.01 -34.24 1.0200 370.16 1 308.47 92.54 0.00 0.00 0.00 0.00 0.00 0.00 0 0 0 0 308.4700 0 0 0 0
5039 93.74 148.82 157.01 -34.24 1.0200 370.16 1 308.47 92.54 0.00 0.00 0.00 0.00 0.00 0.00 0 0 0 0 308.4700 0 0 0 0
5040 93.74 49.30 157.01 -34.24 1.0200 370.16 1 308.47 92.54 0.00 0.00 0.00 0.00 0.00 0.00 0 0 0 0 308.4700 0 0 0 0
5041 93.74 71.23 157.01 -34.24 1.0200 370.16 1 308.47 92.54 0.00 0.00 0.00 0.00 0.00 0.00 0 0 0 0 308.4700 0 0 0 0
5042 93.74 61.20 157.01 -34.24 1.0200 370.16 1 308.47 92.54 0.00 0.00 0.00 0.00 0.00 0.00 0 0 0 0 308.4700 0 0 0 0
5051 84.46 43.11 43.11 -9.40 1.0200 101.64 1 84.70 25.41 0.00 0.00 0.00 0.00 0.00 0.00 0 0 0 0 84.7000 0 0 0 0
5057 0.00 0.00 161.53 -35.23 1.0000 380.82 0 317.35 95.20 0.00 0.00 0.00 0.00 0.00 0.00 0 0 0 0 317.3500 0 0 0 0
5058 251.16 -19.46 161.53 -35.23 1.0000 380.82 1 317.35 95.20 0.00 0.00 0.00 0.00 0.00 0.00 0 0 0 0 317.3500 0 0 0 0
5065 10.57 5.40 5.40 -1.18 1.0300 12.72 1 10.60 3.18 0.00 0.00 0.00 0.00 0.00 0.00 0 0 0 0 10.6000 0 0 0 0
5066 0.00 0.00 0.92 -0.20 1.0300 2.16 0 1.80 0.54 0.00 0.00 0.00 0.00 0.00 0.00 0 0 0 0 1.8000 0 0 0 0
5067 437.05 182.72 223.08 -48.65 1.0300 525.92 1 438.27 131.48 0.00 0.00 0.00 0.00 0.00 0.00 0 0 0 0 438.2700 0 0 0 0
5068 437.05 172.59 223.08 -48.65 1.0300 525.92 1 438.27 131.48 0.00 0.00 0.00 0.00 0.00 0.00 0 0 0 0 438.2700 0 0 0 0
5069 437.05 162.05 223.08 -48.65 1.0300 525.92 1 438.27 131.48 0.00 0.00 0.00 0.00 0.00 0.00 0 0 0 0 438.2700 0 0 0 0
5089 0.00 0.00 47.57 -2.05 1.0100 50.16 0 123.90 0.00 0.00 0.00 0.00 0.00 0.00 0.00 0 0 0 0 41.8000 0 0 0 0
...
];

%% generator cost data
mpc.gencost = [
2 0 0 4 0.0000 0.000 0.000 0.00
2 0 0 4 0.0000 0.000 0.000 0.00
2 0 0 4 0.0000 0.000 0.000 0.00
2 0 0 4 0.0000 0.000 0.000 0.00
2 0 0 4 0.0000 0.000 0.000 0.00
2 0 0 4 0.0000 0.000 0.000 0.00
2 0 0 4 0.0000 0.000 0.000 0.00
2 0 0 4 0.0000 0.000 0.000 0.00
2 0 0 4 0.0000 0.000 0.000 0.00
2 0 0 4 0.0000 0.000 0.000 0.00
2 0 0 4 0.0000 0.000 0.000 0.00
2 0 0 4 0.0000 0.000 0.000 0.00
2 0 0 4 0.0000 0.001 18.641 1087.80
2 0 0 4 0.0000 0.001 18.641 1087.80
2 0 0 4 0.0000 0.001 17.464 734.10
2 0 0 4 0.0000 0.001 17.464 734.10
2 0 0 4 0.0000 0.001 17.464 734.10
2 0 0 4 0.0000 0.001 17.910 868.20
2 0 0 4 0.0000 0.000 0.000 0.00
2 0 0 4 0.0000 0.001 17.046 608.40
2 0 0 4 0.0000 0.001 17.028 603.00
2 0 0 4 0.0000 0.000 0.000 0.00
2 0 0 4 0.0000 0.000 0.000 0.00
2 0 0 4 0.0000 0.000 0.000 0.00
2 0 0 4 0.0000 0.000 0.000 0.00
2 0 0 4 0.0000 0.001 17.977 888.20
2 0 0 4 0.0000 0.001 17.977 888.20
2 0 0 4 0.0000 0.001 17.977 888.20
2 0 0 4 0.0000 0.001 17.977 888.20
2 0 0 4 0.0000 0.001 17.977 888.20
2 0 0 4 0.0000 0.001 17.977 888.20
2 0 0 4 0.0000 0.001 17.495 743.25
2 0 0 4 0.0000 0.001 17.495 743.25
2 0 0 4 0.0000 0.001 17.495 743.25
2 0 0 4 0.0000 0.001 18.448 1029.75
2 0 0 4 0.0000 0.000 0.000 0.00
2 0 0 4 0.0000 0.000 0.000 0.00
2 0 0 4 0.0000 0.000 0.000 0.00
2 0 0 4 0.0000 0.000 0.000 0.00
2 0 0 4 0.0000 0.000 0.000 0.00
2 0 0 4 0.0000 0.002 27.494 1187.70
2 0 0 4 0.0000 0.002 27.494 1187.70
2 0 0 4 0.0000 0.002 27.494 1187.70
2 0 0 4 0.0000 0.000 0.000 0.00
2 0 0 4 0.0000 0.000 0.000 0.00
2 0 0 4 0.0000 0.001 16.989 724.99
2 0 0 4 0.0000 0.001 17.394 850.01
2 0 0 4 0.0000 0.000 0.000 0.00
2 0 0 4 0.0000 0.002 17.268 236.16
2 0 0 4 0.0000 0.002 17.268 1398.51
2 0 0 4 0.0000 0.000 0.000 0.00
2 0 0 4 0.0000 0.000 0.000 0.00
2 0 0 4 0.0000 0.000 0.000 0.00
2 0 0 4 0.0000 0.000 0.000 0.00
2 0 0 4 0.0000 0.000 0.000 0.00
2 0 0 4 0.0000 0.001 16.033 630.00
2 0 0 4 0.0000 0.001 16.033 630.00
2 0 0 4 0.0000 0.001 16.126 660.00
2 0 0 4 0.0000 0.000 0.000 0.00
2 0 0 4 0.0000 0.000 0.000 0.00
2 0 0 4 0.0000 0.000 0.000 0.00
2 0 0 4 0.0000 0.000 0.000 0.00
2 0 0 4 0.0000 0.000 0.000 0.00
2 0 0 4 0.0000 0.002 26.597 1001.59
2 0 0 4 0.0000 0.002 26.597 1001.59
2 0 0 4 0.0000 0.002 26.597 1001.59
2 0 0 4 0.0000 0.001 17.482 877.08
2 0 0 4 0.0000 0.001 17.482 877.08
2 0 0 4 0.0000 0.001 17.482 877.08
2 0 0 4 0.0000 0.001 17.482 877.08
2 0 0 4 0.0000 0.001 17.482 877.08
2 0 0 4 0.0000 0.001 17.482 877.08
2 0 0 4 0.0000 0.000 0.000 0.00
2 0 0 4 0.0000 0.000 0.000 0.00
2 0 0 4 0.0000 0.000 0.000 0.00
2 0 0 4 0.0000 0.000 0.000 0.00
2 0 0 4 0.0000 0.000 0.000 0.00
2 0 0 4 0.0000 0.000 0.000 0.00
2 0 0 4 0.0000 0.000 0.000 0.00
2 0 0 4 0.0000 0.000 0.000 0.00
2 0 0 4 0.0000 0.002 19.197 601.95
2 0 0 4 0.0000 0.002 19.693 734.10
2 0 0 4 0.0000 0.002 21.704 1365.86
2 0 0 4 0.0000 0.000 0.000 0.00
2 0 0 4 0.0000 0.000 0.000 0.00
2 0 0 4 0.0000 0.000 0.000 0.00
2 0 0 4 0.0000 0.000 0.000 0.00
2 0 0 4 0.0000 0.000 0.000 0.00
2 0 0 4 0.0000 0.000 0.000 0.00
2 0 0 4 0.0000 0.000 0.000 0.00
2 0 0 4 0.0000 0.000 0.000 0.00
2 0 0 4 0.0000 0.000 0.000 0.00
2 0 0 4 0.0000 0.000 0.000 0.00
2 0 0 4 0.0000 0.000 0.000 0.00
2 0 0 4 0.0000 0.000 0.000 0.00
2 0 0 4 0.0000 0.000 0.000 0.00
2 0 0 4 0.0000 0.000 0.000 0.00
2 0 0 4 0.0000 0.000 0.000 0.00
2 0 0 4 0.0000 0.000 0.000 0.00
2 0 0 4 0.0000 0.000 0.000 0.00
2 0 0 4 0.0000 0.000 0.000 0.00
2 0 0 4 0.0000 0.000 0.000 0.00
2 0 0 4 0.0000 0.000 0.000 0.00
2 0 0 4 0.0000 0.000 0.000 0.00
2 0 0 4 0.0000 0.000 0.000 0.00
2 0 0 4 0.0000 0.000 0.000 0.00
2 0 0 4 0.0000 0.000 0.000 0.00
2 0 0 4 0.0000 0.000 0.000 0.00
2 0 0 4 0.0000 0.000 0.000 0.00
2 0 0 4 0.0000 0.000 0.000 0.00
2 0 0 4 0.0000 0.000 0.000 0.00
2 0 0 4 0.0000 0.000 0.000 0.00
2 0 0 4 0.0000 0.000 0.000 0.00
2 0 0 4 0.0000 0.000 0.000 0.00
2 0 0 4 0.0000 0.002 19.478 676.95
2 0 0 4 0.0000 0.002 19.478 676.95
2 0 0 4 0.0000 0.002 19.478 676.95
2 0 0 4 0.0000 0.000 0.000 0.00
2 0 0 4 0.0000 0.000 0.000 0.00
2 0 0 4 0.0000 0.000 0.000 0.00
2 0 0 4 0.0000 0.002 17.172 1243.08
2 0 0 4 0.0000 0.002 17.172 1349.57
2 0 0 4 0.0000 0.000 0.000 0.00
2 0 0 4 0.0000 0.000 0.000 0.00
2 0 0 4 0.0000 0.000 0.000 0.00
2 0 0 4 0.0000 0.000 0.000 0.00
2 0 0 4 0.0000 0.001 16.730 666.30
2 0 0 4 0.0000 0.001 17.213 816.00
2 0 0 4 0.0000 0.001 17.213 816.00
2 0 0 4 0.0000 0.001 17.213 816.00
2 0 0 4 0.0000 0.001 17.350 858.49
2 0 0 4 0.0000 0.001 17.350 858.49
2 0 0 4 0.0000 0.001 17.350 858.49
2 0 0 4 0.0000 0.001 16.743 670.50
2 0 0 4 0.0000 0.002 29.085 864.49
2 0 0 4 0.0000 0.002 29.085 864.49
2 0 0 4 0.0000 0.002 29.085 864.49
2 0 0 4 0.0000 0.001 17.694 965.10
2 0 0 4 0.0000 0.001 17.694 965.10
2 0 0 4 0.0000 0.001 17.694 965.10
2 0 0 4 0.0000 0.001 18.220 1128.00
2 0 0 4 0.0000 0.002 17.172 236.04
2 0 0 4 0.0000 0.002 17.172 236.63
2 0 0 4 0.0000 0.002 17.172 236.20
2 0 0 4 0.0000 0.002 17.172 236.75
2 0 0 4 0.0000 0.002 17.172 236.75
2 0 0 4 0.0000 0.002 17.172 236.75
2 0 0 4 0.0000 0.002 17.172 236.75
2 0 0 4 0.0000 0.002 17.172 236.75
2 0 0 4 0.0000 0.002 17.172 236.75
2 0 0 4 0.0000 0.000 0.000 0.00
2 0 0 4 0.0000 0.002 28.724 797.70
2 0 0 4 0.0000 0.002 28.724 797.70
2 0 0 4 0.0000 0.002 27.928 650.40
2 0 0 4 0.0000 0.002 27.928 650.40
2 0 0 4 0.0000 0.002 27.928 650.40
2 0 0 4 0.0000 0.002 27.928 650.40
2 0 0 4 0.0000 0.002 28.200 700.80
2 0 0 4 0.0000 0.002 28.190 699.00
2 0 0 4 0.0000 0.000 0.000 0.00
2 0 0 4 0.0000 0.000 0.000 0.00
2 0 0 4 0.0000 0.001 17.473 896.66
2 0 0 4 0.0000 0.001 17.473 896.66
2 0 0 4 0.0000 0.001 17.473 896.66
2 0 0 4 0.0000 0.001 16.559 613.50
2 0 0 4 0.0000 0.000 0.000 0.00
2 0 0 4 0.0000 0.000 0.000 0.00
2 0 0 4 0.0000 0.000 0.000 0.00
2 0 0 4 0.0000 0.000 0.000 0.00
2 0 0 4 0.0000 0.001 16.879 712.50
2 0 0 4 0.0000 0.001 17.405 875.66
2 0 0 4 0.0000 0.001 16.632 636.00
2 0 0 4 0.0000 0.001 16.811 691.50
2 0 0 4 0.0000 0.001 16.566 615.60
2 0 0 4 0.0000 0.001 17.808 1000.50
2 0 0 4 0.0000 0.001 17.808 1000.50
2 0 0 4 0.0000 0.001 17.808 1000.50
2 0 0 4 0.0000 0.001 17.405 875.66
2 0 0 4 0.0000 0.001 17.405 875.66
2 0 0 4 0.0000 0.000 0.000 0.00
2 0 0 4 0.0000 0.000 0.000 0.00
2 0 0 4 0.0000 0.000 0.000 0.00
2 0 0 4 0.0000 0.001 15.962 607.20
2 0 0 4 0.0000 0.001 15.177 606.30
2 0 0 4 0.0000 0.001 15.186 609.60
2 0 0 4 0.0000 0.001 16.529 1062.70
2 0 0 4 0.0000 0.001 16.529 1062.70
2 0 0 4 0.0000 0.001 16.529 1062.70
2 0 0 4 0.0000 0.001 16.529 1062.70
2 0 0 4 0.0000 0.001 16.529 1062.70
2 0 0 4 0.0000 0.001 16.529 1062.70
2 0 0 4 0.0000 0.001 16.996 727.05
2 0 0 4 0.0000 0.001 17.435 1076.03
2 0 0 4 0.0000 0.001 17.422 1076.03
2 0 0 4 0.0000 0.001 15.989 615.90
2 0 0 4 0.0000 0.001 15.948 602.70
2 0 0 4 0.0000 0.001 17.987 1223.61
2 0 0 4 0.0000 0.001 17.987 1223.61
2 0 0 4 0.0000 0.001 17.987 1223.61
2 0 0 4 0.0000 0.000 0.000 0.00
...
];

%% branch data
mpc.branch = [
1001 1064 0.005240 0.035800 0.00609 221.00 0.00 0.00 0.00000 0.000 1 0.00 0.00 67.48 10.08 -67.23 -8.93 0 0 0 0
1001 1064 0.005240 0.035800 0.00609 221.00 0.00 0.00 0.00000 0.000 1 0.00 0.00 67.48 10.08 -67.23 -8.93 0 0 0 0
1001 1071 0.004350 0.028080 0.00536 221.00 0.00 0.00 0.00000 0.000 1 0.00 0.00 -77.87 -13.02 78.15 14.31 0 0 0 0
1001 1071 0.004350 0.028080 0.00536 221.00 0.00 0.00 0.00000 0.000 1 0.00 0.00 -77.87 -13.02 78.15 14.31 0 0 0 0
1002 1007 0.077760 0.466930 0.06336 98.00 0.00 0.00 0.00000 0.000 1 0.00 0.00 1.17 -5.06 -1.16 -1.60 0 0 0 0
1010 1002 0.055520 0.135700 0.01777 98.00 0.00 0.00 0.00000 0.000 1 0.00 0.00 16.73 -2.21 -16.58 0.69 0 0 0 0
1004 1003 0.004500 0.115820 0.00000 250.00 0.00 0.00 1.00000 0.000 1 0.00 0.00 -28.33 5.47 28.36 -4.54 0 0 0 0
1022 1003 0.004850 0.020120 0.00341 221.00 0.00 0.00 0.00000 0.000 1 0.00 0.00 77.68 -4.40 -77.39 5.23 0 0 0 0
1055 1003 0.015740 0.037820 0.00513 98.00 0.00 0.00 0.00000 0.000 1 0.00 0.00 -48.66 1.05 49.03 -0.69 0 0 0 0
1004 3133 0.004200 0.030000 0.05500 523.00 0.00 0.00 0.00000 0.000 1 0.00 0.00 186.58 -35.85 -185.12 40.55 0 0 0 0
1006 1005 0.006020 0.147070 0.00000 42.00 0.00 0.00 1.00000 0.000 1 0.00 0.00 25.73 -4.94 -25.69 5.94 0 0 0 0
1025 1005 0.018420 0.082100 0.01204 149.00 0.00 0.00 0.00000 0.000 1 0.00 0.00 42.76 4.11 -42.43 -3.90 0 0 0 0
1005 1061 0.005990 0.024840 0.00422 221.00 0.00 0.00 0.00000 0.000 1 0.00 0.00 75.90 -24.98 -75.53 26.10 0 0 0 0
1067 1005 0.017110 0.041810 0.00548 98.00 0.00 0.00 0.00000 0.000 1 0.00 0.00 7.88 -23.25 -7.78 22.94 0 0 0 0
1007 1015 0.062240 0.373750 0.05072 98.00 0.00 0.00 0.00000 0.000 1 0.00 0.00 -1.28 -3.01 1.28 -2.37 0 0 0 0
1031 1007 0.048030 0.274340 0.04123 98.00 0.00 0.00 0.00000 0.000 1 0.00 0.00 4.59 -7.05 -4.56 2.84 0 0 0 0
1009 1008 0.004550 0.094710 0.00000 120.00 0.00 0.00 1.00000 0.000 1 0.00 0.00 61.87 -11.88 -61.69 15.53 0 0 0 0
1008 1032 0.045010 0.110020 0.01441 98.00 0.00 0.00 0.00000 0.000 1 0.00 0.00 57.45 -5.85 -56.03 7.85 0 0 0 0
1008 1069 0.008300 0.036280 0.00553 149.00 0.00 0.00 0.00000 0.000 1 0.00 0.00 4.24 -9.69 -4.23 9.14 0 0 0 0
1011 1010 0.007210 0.324600 0.00000 46.00 0.00 0.00 1.00000 0.000 1 0.00 0.00 9.97 0.00 -9.97 0.30 0 0 0 0
1010 1015 0.047030 0.282430 0.03833 98.00 0.00 0.00 0.00000 0.000 1 0.00 0.00 8.83 -4.10 -8.79 0.25 0 0 0 0
1010 1030 0.061600 0.369900 0.05020 98.00 0.00 0.00 0.00000 0.000 1 0.00 0.00 -15.59 3.70 15.75 -7.98 0 0 0 0
1012 1087 0.049340 0.204690 0.03473 149.00 0.00 0.00 0.00000 0.000 1 0.00 0.00 -76.30 16.45 79.24 -7.90 0 0 0 0
3051 1012 0.057100 0.249770 0.03804 149.00 0.00 0.00 0.00000 0.000 1 0.00 0.00 -70.33 16.64 73.32 -7.47 0 0 0 0
1013 1031 0.045090 0.270780 0.03675 98.00 0.00 0.00 0.00000 0.000 1 0.00 0.00 13.93 -7.60 -13.83 4.43 0 0 0 0
1047 1013 0.009470 0.061170 0.01167 221.00 0.00 0.00 0.00000 0.000 1 0.00 0.00 58.82 -10.34 -58.49 11.29 0 0 0 0
1086 1013 0.079000 0.193110 0.02529 98.00 0.00 0.00 0.00000 0.000 1 0.00 0.00 -15.06 10.04 15.33 -11.97 0 0 0 0
1014 1047 0.035660 0.147940 0.02510 149.00 0.00 0.00 0.00000 0.000 1 0.00 0.00 17.22 -0.01 -17.12 -2.13 0 0 0 0
1014 1083 0.041050 0.182930 0.02682 149.00 0.00 0.00 0.00000 0.000 1 0.00 0.00 -19.44 -0.62 19.59 -1.49 0 0 0 0
1016 1034 0.018280 0.109760 0.01489 98.00 0.00 0.00 0.00000 0.000 1 0.00 0.00 -16.64 13.74 16.72 -14.75 0 0 0 0
1068 1016 0.027730 0.158370 0.02380 98.00 0.00 0.00 0.00000 0.000 1 0.00 0.00 -13.61 -18.21 13.75 16.58 0 0 0 0
1018 1017 0.032270 0.078870 0.01033 98.00 0.00 0.00 0.00000 0.000 1 0.00 0.00 26.37 -0.95 -26.14 0.49 0 0 0 0
1017 1029 0.032440 0.141880 0.02161 149.00 0.00 0.00 0.00000 0.000 1 0.00 0.00 36.54 -25.19 -35.90 25.84 0 0 0 0
1037 1017 0.007520 0.033520 0.00491 221.00 0.00 0.00 0.00000 0.000 1 0.00 0.00 -56.96 -8.05 57.22 8.74 0 0 0 0
1047 1017 0.036000 0.156000 0.02400 150.00 0.00 0.00 0.00000 0.000 1 0.00 0.00 88.75 -1.06 -85.96 10.77 0 0 0 0
1024 1018 0.010940 0.065720 0.00892 98.00 0.00 0.00 0.00000 0.000 1 0.00 0.00 26.52 -1.34 -26.44 0.93 0 0 0 0
1019 1040 0.049780 0.206510 0.03504 149.00 0.00 0.00 0.00000 0.000 1 0.00 0.00 -13.73 5.60 13.85 -8.61 0 0 0 0
1019 1045 0.015220 0.037200 0.00487 221.00 0.00 0.00 0.00000 0.000 1 0.00 0.00 104.57 16.11 -102.87 -12.46 0 0 0 0
1019 1071 0.004400 0.028000 0.00540 225.00 0.00 0.00 0.00000 0.000 1 0.00 0.00 -43.91 53.02 44.12 -52.23 0 0 0 0
1071 1019 0.004400 0.028000 0.00540 225.00 0.00 0.00 0.00000 0.000 1 0.00 0.00 44.12 -52.23 -43.91 53.02 0 0 0 0
1019 1084 0.030000 0.160000 0.02500 220.00 0.00 0.00 0.00000 0.000 1 0.00 0.00 -64.78 -1.30 66.03 5.39 0 0 0 0
1021 1020 0.003270 0.078120 0.00000 250.00 0.00 0.00 1.00000 0.000 1 0.00 0.00 149.63 -28.73 -148.87 46.81 0 0 0 0
1025 1020 0.008280 0.034340 0.00583 149.00 0.00 0.00 0.00000 0.000 1 0.00 0.00 50.03 -25.92 -49.77 26.35 0 0 0 0
1084 1020 0.010560 0.063370 0.00860 221.00 0.00 0.00 0.00000 0.000 1 0.00 0.00 -33.74 9.28 33.86 -9.45 0 0 0 0
1020 3059 0.018900 0.060000 0.00600 300.00 0.00 0.00 0.00000 0.000 1 0.00 0.00 62.97 3.88 -62.26 -2.23 0 0 0 0
1020 3130 0.009960 0.069380 0.01134 221.00 0.00 0.00 0.00000 0.000 1 0.00 0.00 101.82 13.15 -100.82 -7.36 0 0 0 0
1023 1022 0.005350 0.117330 0.00000 250.00 0.00 0.00 1.00000 0.000 1 0.00 0.00 135.00 -0.50 -134.04 21.47 0 0 0 0
1022 1028 0.014330 0.092530 0.01765 221.00 0.00 0.00 0.00000 0.000 1 0.00 0.00 28.18 -8.53 -28.07 7.47 0 0 0 0
1022 1028 0.014330 0.092530 0.01765 221.00 0.00 0.00 0.00000 0.000 1 0.00 0.00 28.18 -8.53 -28.07 7.47 0 0 0 0
1024 1090 0.014140 0.063030 0.00924 149.00 0.00 0.00 0.00000 0.000 1 0.00 0.00 -89.56 -16.52 90.74 20.84 0 0 0 0
1026 1025 0.004200 0.180460 0.00000 200.00 0.00 0.00 1.00000 0.000 1 0.00 0.00 93.15 -6.08 -92.78 21.81 0 0 0 0
1027 1045 0.025050 0.109570 0.01669 221.00 0.00 0.00 0.00000 0.000 1 0.00 0.00 -14.67 31.95 14.99 -32.23 0 0 0 0
1056 1027 0.031210 0.076300 0.00999 250.00 0.00 0.00 0.00000 0.000 1 0.00 0.00 88.90 -11.72 -86.54 16.45 0 0 0 0
1028 3109 0.004280 0.018750 0.00286 250.00 0.00 0.00 0.00000 0.000 1 0.00 0.00 46.12 -17.78 -46.02 17.92 0 0 0 0
1029 1056 0.020540 0.117330 0.01763 221.00 0.00 0.00 0.00000 0.000 1 0.00 0.00 -47.29 -8.60 47.75 9.41 0 0 0 0
1030 1038 0.074040 0.422850 0.06354 98.00 0.00 0.00 0.00000 0.000 1 0.00 0.00 -23.68 1.65 24.10 -5.86 0 0 0 0
1083 1030 0.065370 0.373340 0.05610 98.00 0.00 0.00 0.00000 0.000 1 0.00 0.00 16.88 -4.17 -16.70 -0.65 0 0 0 0
1033 1032 0.002830 0.067580 0.00000 170.00 0.00 0.00 1.00000 0.000 1 0.00 0.00 -119.70 39.35 120.13 -29.15 0 0 0 0
1032 1036 0.019560 0.117460 0.01594 98.00 0.00 0.00 0.00000 0.000 1 0.00 0.00 3.80 3.64 -3.80 -5.20 0 0 0 0
1038 1032 0.045000 0.110000 0.01500 155.00 0.00 0.00 0.00000 0.000 1 0.00 0.00 70.10 -13.83 -67.90 17.67 0 0 0 0
1033 1081 0.003000 0.031000 0.05900 548.00 0.00 0.00 0.00000 0.000 1 0.00 0.00 101.41 -24.93 -101.10 21.86 0 0 0 0
1033 3050 0.013900 0.136000 0.26200 647.00 0.00 0.00 0.00000 0.000 1 0.00 0.00 226.80 -1.82 -219.98 40.95 0 0 0 0
1035 1034 0.004380 0.084960 0.00000 130.00 0.00 0.00 1.00000 0.000 1 0.00 0.00 67.50 -9.13 -67.30 13.08 0 0 0 0
1067 1034 0.007950 0.047710 0.00647 98.00 0.00 0.00 0.00000 0.000 1 0.00 0.00 -50.37 -1.12 50.57 1.68 0 0 0 0
1088 1036 0.020650 0.117930 0.01772 98.00 0.00 0.00 0.00000 0.000 1 0.00 0.00 9.82 -3.00 -9.80 1.35 0 0 0 0
1037 1071 0.006690 0.043190 0.00824 300.00 0.00 0.00 0.00000 0.000 1 0.00 0.00 -45.28 -20.92 45.45 21.23 0 0 0 0
1039 1038 0.002010 0.085910 0.00000 200.00 0.00 0.00 1.00000 0.000 1 0.00 0.00 110.63 -20.68 -110.38 31.56 0 0 0 0
1082 1038 0.011150 0.049690 0.00729 149.00 0.00 0.00 0.00000 0.000 1 0.00 0.00 61.25 -6.49 -60.85 7.53 0 0 0 0
1083 1038 0.010000 0.050000 0.00700 221.00 0.00 0.00 0.00000 0.000 1 0.00 0.00 -76.42 21.69 77.02 -19.40 0 0 0 0
1040 1090 0.029910 0.133290 0.01955 149.00 0.00 0.00 0.00000 0.000 1 0.00 0.00 -58.21 -3.96 59.23 6.54 0 0 0 0
1042 1041 0.004190 0.111230 0.00000 145.00 0.00 0.00 1.00000 0.000 1 0.00 0.00 0.00 0.00 0.00 0.00 0 0 0 0
1043 1041 0.003000 0.128440 0.00000 95.00 0.00 0.00 1.00000 0.000 1 0.00 0.00 44.10 -3.60 -44.04 6.11 0 0 0 0
1065 1041 0.003860 0.022030 0.00331 98.00 0.00 0.00 0.00000 0.000 1 0.00 0.00 15.17 10.59 -15.16 -10.85 0 0 0 0
1041 1067 0.003930 0.017220 0.00262 149.00 0.00 0.00 0.00000 0.000 1 0.00 0.00 59.20 4.74 -59.06 -4.40 0 0 0 0
1044 3019 0.038570 0.171920 0.02521 149.00 0.00 0.00 0.00000 0.000 1 0.00 0.00 46.65 -18.46 -45.72 19.95 0 0 0 0
3130 1044 0.027310 0.190290 0.03111 221.00 0.00 0.00 0.00000 0.000 1 0.00 0.00 62.39 -10.08 -61.33 14.30 0 0 0 0
1045 1064 0.005450 0.037940 0.00620 221.00 0.00 0.00 0.00000 0.000 1 0.00 0.00 -10.68 16.76 10.70 -17.20 0 0 0 0
1087 1046 0.032620 0.142690 0.02173 149.00 0.00 0.00 0.00000 0.000 1 0.00 0.00 78.22 -13.23 -76.30 19.36 0 0 0 0
1046 3009 0.056540 0.234540 0.03980 149.00 0.00 0.00 0.00000 0.000 1 0.00 0.00 65.21 -9.82 -62.91 15.21 0 0 0 0
1048 1047 0.003350 0.065760 0.00000 390.00 0.00 0.00 1.00000 0.000 1 0.00 0.00 0.00 0.00 0.00 0.00 0 0 0 0
1049 1047 0.002760 0.117830 0.00000 390.00 0.00 0.00 1.00000 0.000 1 0.00 0.00 0.00 0.00 0.00 0.00 0 0 0 0
1050 1047 0.003130 0.099410 0.00000 124.00 0.00 0.00 1.00000 0.000 1 0.00 0.00 89.15 -6.75 -88.90 14.69 0 0 0 0
1051 1047 0.005600 0.128300 0.00000 117.00 0.00 0.00 1.00000 0.000 1 0.00 0.00 89.15 -4.90 -88.70 15.13 0 0 0 0
1052 1047 0.003680 0.082600 0.00000 110.00 0.00 0.00 1.00000 0.000 1 0.00 0.00 89.15 -9.92 -88.85 16.56 0 0 0 0
1053 1047 0.002300 0.088080 0.00000 250.00 0.00 0.00 1.00000 0.000 1 0.00 0.00 -80.78 25.53 80.93 -19.52 0 0 0 0
1047 1085 0.009470 0.061170 0.01167 221.00 0.00 0.00 0.00000 0.000 1 0.00 0.00 55.07 -13.34 -54.77 14.07 0 0 0 0
1053 1081 0.003000 0.030000 0.06000 548.00 0.00 0.00 0.00000 0.000 1 0.00 0.00 80.78 -25.53 -80.58 21.20 0 0 0 0
1054 1056 0.022020 0.096330 0.01467 149.00 0.00 0.00 0.00000 0.000 1 0.00 0.00 -12.06 -16.36 12.14 15.19 0 0 0 0
1089 1054 0.087370 0.213570 0.02796 98.00 0.00 0.00 0.00000 0.000 1 0.00 0.00 3.09 -14.51 -2.93 12.11 0 0 0 0
1055 1089 0.049820 0.121790 0.01595 98.00 0.00 0.00 0.00000 0.000 1 0.00 0.00 44.68 -2.18 -43.70 3.00 0 0 0 0
1057 1056 0.003150 0.131200 0.00000 160.00 0.00 0.00 1.00000 0.000 1 0.00 0.00 0.00 0.00 0.00 0.00 0 0 0 0
1056 1061 0.022670 0.129460 0.01945 150.00 0.00 0.00 0.00000 0.000 1 0.00 0.00 -59.69 26.44 60.61 -23.20 0 0 0 0
1056 1065 0.022690 0.129620 0.01948 250.00 0.00 0.00 0.00000 0.000 1 0.00 0.00 -89.11 37.95 91.13 -28.41 0 0 0 0
1059 1058 0.026550 0.461870 0.00000 33.00 0.00 0.00 1.00000 0.000 1 0.00 0.00 0.00 0.00 0.00 0.00 0 0 0 0
1060 1058 0.008940 0.388540 0.00000 27.00 0.00 0.00 1.00000 0.000 1 0.00 0.00 0.00 0.00 0.00 0.00 0 0 0 0
1069 1058 0.007400 0.051550 0.00843 221.00 0.00 0.00 0.00000 0.000 1 0.00 0.00 87.44 -8.18 -86.90 11.05 0 0 0 0
1069 1058 0.007400 0.051550 0.00843 221.00 0.00 0.00 0.00000 0.000 1 0.00 0.00 87.44 -8.18 -86.90 11.05 0 0 0 0
1058 1087 0.015730 0.109560 0.01791 221.00 0.00 0.00 0.00000 0.000 1 0.00 0.00 80.17 -12.96 -79.19 17.91 0 0 0 0
1058 1087 0.015730 0.109560 0.01791 221.00 0.00 0.00 0.00000 0.000 1 0.00 0.00 80.17 -12.96 -79.19 17.91 0 0 0 0
1062 1061 0.016300 0.317870 0.00000 29.00 0.00 0.00 1.00000 0.000 1 0.00 0.00 0.00 0.00 0.00 0.00 0 0 0 0
1063 1061 0.005670 0.104090 0.00000 260.00 0.00 0.00 1.00000 0.000 1 0.00 0.00 0.00 0.00 0.00 0.00 0 0 0 0
1061 3042 0.054000 0.180000 0.02800 221.00 0.00 0.00 0.00000 0.000 1 0.00 0.00 14.92 -2.90 -14.80 0.44 0 0 0 0
1066 1065 0.005080 0.123150 0.00000 200.00 0.00 0.00 1.00000 0.000 1 0.00 0.00 106.88 -3.74 -106.30 17.82 0 0 0 0
1088 1068 0.029620 0.169210 0.02543 98.00 0.00 0.00 0.00000 0.000 1 0.00 0.00 46.43 -0.24 -45.79 1.38 0 0 0 0
1070 1069 0.002970 0.070000 0.00000 220.00 0.00 0.00 1.00000 0.000 1 0.00 0.00 120.38 18.61 -119.97 -9.01 0 0 0 0
1082 1069 0.021370 0.095200 0.01396 149.00 0.00 0.00 0.00000 0.000 1 0.00 0.00 51.25 -15.11 -50.67 16.22 0 0 0 0
1072 1071 0.005290 0.085510 0.00000 240.00 0.00 0.00 1.00000 0.000 1 0.00 0.00 191.59 26.59 -189.65 4.77 0 0 0 0
1073 1071 0.004990 0.142540 0.00000 240.00 0.00 0.00 1.00000 0.000 1 0.00 0.00 191.59 33.37 -189.74 19.48 0 0 0 0
1074 1071 0.005750 0.124530 0.00000 240.00 0.00 0.00 1.00000 0.000 1 0.00 0.00 191.59 29.73 -189.47 16.16 0 0 0 0
1075 1071 0.003730 0.099670 0.00000 240.00 0.00 0.00 1.00000 0.000 1 0.00 0.00 191.59 30.72 -190.22 6.06 0 0 0 0
...